geometry optimzed in LAMMPS
_audit_creation_date              2020-12-01 
_audit_creation_method            'lammps2cif' 
_symmetry_space_group_name_H-M    'P1' 
_symmetry_Int_Tables_number       1 
_symmetry_cell_setting            triclinic 
loop_ 
_symmetry_equiv_pos_as_xyz 
  x,y,z 
_cell_length_a                    40.464578 
_cell_length_b                    37.532578044419 
_cell_length_c                    55.01838201199206 
_cell_angle_alpha                 87.11528575023252 
_cell_angle_beta                  88.0608247686947 
_cell_angle_gamma                 120.57845462697483 
loop_ 
_atom_site_label 
_atom_site_type_symbol 
_atom_site_fract_x 
_atom_site_fract_y 
_atom_site_fract_z 
_atom_site_charge 
C1          C  0.07671693  0.21423508  0.08946743     0.03300
C2          C  0.07873688  0.17993306  0.08111914    -0.12900
C3          C  0.04796439  0.14968917  0.06848838     0.00800
C4          C  0.51776373  0.15584780  0.06351552    -0.11400
C5          C  0.51386684  0.18658881  0.07374906     0.03300
C6          C  0.04306331  0.21579507  0.08631171    -0.10800
H7          H  0.10328071  0.17668372  0.08460748     0.08900
H8          H  0.49513862  0.13460102  0.05275661     0.06400
H9          H  0.03952677  0.23929575  0.09467652     0.06200
C10         C  0.29195344  0.38940454  0.10555802     0.03300
C11         C  0.30052627  0.35837169  0.11076167    -0.12900
C12         C  0.33551356  0.36338968  0.10318795     0.00800
C13         C  0.36320697  0.39949786  0.09016372    -0.11400
C14         C  0.35610001  0.43125441  0.08301424     0.03300
C15         C  0.31951384  0.42621057  0.09076671    -0.10800
H16         H  0.27935366  0.32930624  0.12070996     0.08900
H17         H  0.38943059  0.40074670  0.08367389     0.06400
H18         H  0.31317333  0.45033718  0.08602146     0.06200
C19         C  0.08635875  0.47297132  0.06838560     0.03300
C20         C  0.07633603  0.43487463  0.08140487    -0.12900
C21         C  0.10440001  0.43240106  0.09477215     0.00800
C22         C  0.13966789  0.46853710  0.09705114    -0.11400
C23         C  0.15069291  0.50534578  0.08312528     0.03300
C24         C  0.12417617  0.50660873  0.06799607    -0.10800
H25         H  0.04806556  0.40774784  0.08045061     0.08900
H26         H  0.15915222  0.46759608  0.10971485     0.06400
H27         H  0.13258596  0.53430473  0.05620395     0.06200
C28         C  0.36957321  0.18000279  0.08563405     0.80400
N29         N  0.33360697  0.14601227  0.08614650    -0.77900
C30         C  0.30264305  0.14728721  0.09550352     0.82800
N31         N  0.30804240  0.18270905  0.10417018    -0.77900
C32         C  0.34352776  0.21661144  0.10359293     0.82900
N33         N  0.37409436  0.21524142  0.09432390    -0.79600
C34         C  0.37715913  0.04419777  0.93697515     0.03300
C35         C  0.34033001  0.00948106  0.94140894    -0.12900
C36         C  0.30815694  0.01036864  0.93427460     0.00800
C37         C  0.31209401  0.04619996  0.92256167    -0.11400
C38         C  0.34859148  0.08133779  0.91684580     0.03300
C39         C  0.38167959  0.08054665  0.92426177    -0.10800
H40         H  0.33554587  0.48119382  0.94960227     0.08900
H41         H  0.28669905  0.04537721  0.91608395     0.06400
H42         H  0.41013091  0.10745784  0.92022354     0.06200
C43         C  0.17206210  0.09753854  0.90677921     0.03300
C44         C  0.13628867  0.06047021  0.91304338    -0.12900
C45         C  0.10300413  0.06284627  0.91887404     0.00800
C46         C  0.10592868  0.10177863  0.91713264    -0.11400
C47         C  0.14130717  0.13807789  0.91280479     0.03300
C48         C  0.17415816  0.13601019  0.90777415    -0.10800
H49         H  0.13451979  0.03066338  0.91369724     0.08900
H50         H  0.08119793  0.10456969  0.92205544     0.06400
H51         H  0.20129431  0.16482626  0.90370734     0.06200
C52         C  0.13553361  0.28379261  0.93376122     0.80400
N53         N  0.16827585  0.32022987  0.93630308    -0.77900
C54         C  0.16695755  0.35502076  0.93956164     0.82800
N55         N  0.13282794  0.35341649  0.94014171    -0.77900
C56         C  0.09993534  0.31709256  0.93784023     0.82900
N57         N  0.10122483  0.28228057  0.93420608    -0.79600
C58         C  0.40576747  0.30419586  0.90615723     0.03300
C59         C  0.43781477  0.30124942  0.91148571    -0.12900
C60         C  0.46622366  0.33009640  0.92513042     0.00800
C61         C  0.46299691  0.36260620  0.93366685    -0.11400
C62         C  0.43089928  0.36628461  0.92905870     0.03300
C63         C  0.40171662  0.33665106  0.91523854    -0.10800
H64         H  0.44133885  0.27685797  0.90432626     0.08900
H65         H  0.48535619  0.38475895  0.94438162     0.06400
H66         H  0.37671172  0.33892086  0.91154805     0.06200
Zr67       Zr  0.48772663  0.50465230  0.04868294     2.17500
O68         O  0.48199780  0.48794207  0.09262153    -0.51200
O69         O  0.51839848  0.07684807  0.06556876    -0.74400
O70         O  0.03423517  0.48474495  0.06347536    -0.81200
O71         O  0.37855501  0.47831202  0.04631751    -0.82900
O72         O  0.06798556  0.48268368  0.03009112    -0.78500
O73         O  0.42189219  0.47208780  0.06858639    -0.90200
O74         O  0.06244631  0.12003207  0.03633778    -0.76100
O75         O  0.04201378  0.04607225  0.02074238    -0.85600
O76         O  0.47401650  0.05472244  0.02853164    -0.85300
O77         O  0.48857206  0.45583242  0.02178096    -0.72100
O78         O  0.43024217  0.46486236  0.02816048    -0.84200
Zr79       Zr  0.47401580  0.00639379  0.95179345     2.26400
Zr80       Zr  0.04309169  0.99812228  0.99375764     2.06300
Zr81       Zr  0.41714826  0.51298901  0.00744088     2.10000
Zr82       Zr  0.02870775  0.09403320  0.99979840     1.78800
O83         O  0.34903839  0.47307847  0.00017723    -0.93000
O84         O  0.09689910  0.13936062  0.98777371    -0.40800
O85         O  0.47088635  0.05389348  0.97854203    -0.77500
O86         O  0.03166392  0.04810521  0.97292088    -0.96100
O87         O  0.48412335  0.45651353  0.97239115    -0.89400
O88         O  0.41868051  0.46616688  0.97946836    -0.92300
C89         C  0.04559304  0.11324649  0.05745371     1.01500
C90         C  0.38731420  0.46464802  0.06553685     1.14400
C91         C  0.06018002  0.47910473  0.05314478     1.05200
O92         O  0.11256140  0.04400589  0.99338825    -0.94400
O93         O  0.07327488  0.01312282  0.95238680    -0.90200
O94         O  0.03620897  0.02924746  0.92939635    -0.83300
C95         C  0.06798798  0.03008489  0.93323234     1.11800
O96         O  0.40283139  0.36587739  0.03585189    -0.96400
Zr97       Zr  0.43038546  0.41755705  0.00110996     1.88900
O98         O  0.45103724  0.43687982  0.93494935    -0.73100
O99         O  0.04345048  0.43569777  0.98447292    -0.52300
O100        O  0.45129220  0.36708662  0.00068145    -0.97000
O101        O  0.36052790  0.38310413  0.00661142    -0.54200
O102        O  0.40956422  0.38608476  0.96302874    -0.73600
C103        C  0.42820551  0.39830117  0.94221411     0.98800
O104        O  0.97953420  0.02689228  0.90869517    -0.62400
O105        O  0.40783034  0.06817831  0.02371760    -0.57200
O106        O  0.42516525  0.02464821  0.93974529    -0.93900
O107        O  0.40816825  0.04829476  0.97235663    -0.92300
O108        O  0.50521773  0.14198211  0.00634661    -0.92700
O109        O  0.04564315  0.14540711  0.96555044    -0.91500
C110        C  0.40731796  0.04119673  0.94982069     1.17600
H111        H  0.46963766  0.07161567  0.03926087     0.33500
H112        H  0.05376995  0.06805949  0.96260445     0.44400
H113        H  0.39522978  0.45249091  0.97111020     0.37900
H114        H  0.49188914  0.43518932  0.03070680     0.34400
H115        H  0.10483753  0.16517148  0.99595158     0.26200
H116        H  0.07101350  0.44443058  0.98234987     0.32100
H117        H  0.43202767  0.34422339  0.99164409     0.38000
H118        H  0.52886413  0.16884340  0.00834017     0.32500
H119        H  0.38300569  0.06294950  0.01783358     0.31400
H120        H  0.33878976  0.49108198  0.00452146     0.33100
H121        H  0.35152182  0.38277579  0.99007687     0.32000
H122        H  0.04203032  0.12994327  0.95085848     0.36000
H123        H  0.45421977  0.00944555  0.90233599     0.28800
H124        H  0.50804808  0.50586135  0.09824094     0.33000
H125        H  0.38715605  0.33880100  0.02889771     0.35800
H126        H  0.40254630  0.06097334  0.04153166     0.28500
H127        H  0.98213175  0.05463610  0.90784537     0.41300
H128        H  0.11810265  0.06923667  0.98325438     0.31400
H129        H  0.10966698  0.12631699  0.99634110     0.39000
H130        H  0.35565121  0.40298988  0.01486880     0.30800
H131        H  0.03407777  0.41756891  0.99984378     0.30900
H132        H  0.47733074  0.45934223  0.09471059     0.31200
C133        C  0.24437988  0.30381018  0.72755437     0.03300
C134        C  0.28212600  0.33390490  0.71972806    -0.12900
C135        C  0.31282353  0.32897158  0.72503041     0.00800
C136        C  0.30652174  0.29322272  0.73819321    -0.11400
C137        C  0.26960713  0.26345424  0.74811639     0.03300
C138        C  0.23782648  0.26863602  0.74278656    -0.10800
H139        H  0.28786318  0.36209234  0.70933625     0.08900
H140        H  0.33127157  0.29109065  0.74303692     0.06400
H141        H  0.20894682  0.24561855  0.74985658     0.06200
C142        C  0.21233769  0.03957149  0.76186278     0.03300
C143        C  0.21734642  0.00691706  0.75421538    -0.12900
C144        C  0.18943130  0.47890298  0.73878678     0.00800
C145        C  0.15829998  0.48316324  0.73231206    -0.11400
C146        C  0.15358734  0.01271754  0.74113775     0.03300
C147        C  0.18068900  0.04216345  0.75508221    -0.10800
H148        H  0.24222977  0.00519671  0.75907488     0.08900
H149        H  0.13721332  0.46168311  0.72089473     0.06400
H150        H  0.17665266  0.06687928  0.76111061     0.06200
C151        C  0.44395976  0.23367377  0.76185569     0.03300
C152        C  0.44013664  0.19482385  0.75837940    -0.12900
C153        C  0.47110756  0.19239729  0.74876917     0.00800
C154        C  0.00955510  0.23116642  0.74420445    -0.11400
C155        C  0.01325248  0.27012580  0.74553453     0.03300
C156        C  0.47918503  0.27045077  0.75438718    -0.10800
H157        H  0.41333401  0.16625206  0.76371336     0.08900
H158        H  0.03310513  0.22863631  0.73621870     0.06400
H159        H  0.48210921  0.30054741  0.75600620     0.06200
C160        C  0.48502144  0.05505685  0.72076790     0.80400
N161        N  0.01914226  0.05709334  0.72097019    -0.77900
C162        C  0.02110267  0.02308228  0.71594882     0.82800
N163        N  0.48788165  0.48672141  0.71169858    -0.77900
C164        C  0.45371949  0.48489917  0.71112759     0.82900
N165        N  0.45384613  0.01921748  0.71532999    -0.79600
Zr166      Zr  0.30999199  0.17259193  0.78471841     2.17500
O167        O  0.32467107  0.16910176  0.74179995    -0.51200
O168        O  0.28829779  0.21586140  0.76301848    -0.74400
O169        O  0.26387768  0.10569486  0.76953518    -0.81200
O170        O  0.41735724  0.25505958  0.79330268    -0.82900
O171        O  0.22541943  0.06062345  0.80134252    -0.78500
O172        O  0.37735642  0.20454861  0.76965962    -0.90200
O173        O  0.25450680  0.23328933  0.78857600    -0.76100
O174        O  0.25322229  0.15457892  0.80903272    -0.85600
O175        O  0.32535516  0.23428023  0.80405974    -0.85300
O176        O  0.29928235  0.11547314  0.81296403    -0.72100
O177        O  0.36087472  0.18597622  0.81043737    -0.84200
Zr178      Zr  0.30625415  0.17203178  0.88272703     2.26400
Zr179      Zr  0.24247092  0.09835892  0.83771316     2.06300
Zr180      Zr  0.37644404  0.24724068  0.82967612     2.10000
Zr181      Zr  0.26842632  0.21621113  0.82843293     1.78800
O182        O  0.44351169  0.27345320  0.83764648    -0.93000
O183        O  0.19891840  0.18674607  0.82871108    -0.40800
O184        O  0.31954120  0.22983954  0.85435383    -0.77500
O185        O  0.25549110  0.16014920  0.85654753    -0.96100
O186        O  0.29379490  0.11175463  0.86316013    -0.89400
O187        O  0.36422275  0.19126339  0.85899402    -0.92300
C188        C  0.26877919  0.23374462  0.76742221     1.01500
C189        C  0.41107166  0.23295392  0.77495030     1.14400
C190        C  0.23658348  0.07000307  0.77864725     1.05200
O191        O  0.17498772  0.06953016  0.82997607    -0.94400
O192        O  0.20146424  0.08077520  0.87523353    -0.90200
O193        O  0.23954134  0.12848032  0.90107309    -0.83300
C194        C  0.20645531  0.09956192  0.89486457     1.11800
O195        O  0.37229555  0.10109952  0.80801569    -0.96400
Zr196      Zr  0.35114755  0.13120173  0.83877674     1.88900
O197        O  0.32628190  0.12653153  0.90341934    -0.73100
O198        O  0.23444033  0.03226009  0.85320180    -0.52300
O199        O  0.32415337  0.05656801  0.84542018    -0.97000
O200        O  0.42110838  0.16688652  0.83269980    -0.54200
O201        O  0.36898857  0.12057360  0.87885490    -0.73600
C202        C  0.34970192  0.11332451  0.89920159     0.98800
O203        O  0.29844819  0.18942134  0.92384756    -0.62400
O204        O  0.39051649  0.31556772  0.81347565    -0.57200
O205        O  0.35284406  0.23861754  0.89821776    -0.93900
O206        O  0.39137004  0.28409872  0.86648362    -0.92300
O207        O  0.29927875  0.29145279  0.82673635    -0.92700
O208        O  0.24345952  0.23822315  0.86183964    -0.91500
C209        C  0.38031128  0.27441730  0.88921698     1.17600
H210        H  0.33334256  0.25809362  0.79266341     0.33500
H211        H  0.23303718  0.15754222  0.86485963     0.44400
H212        H  0.38544323  0.19964459  0.86929346     0.37900
H213        H  0.29610368  0.09221735  0.80441379     0.34400
H214        H  0.19110625  0.17094329  0.81401786     0.26200
H215        H  0.20632572  0.01382761  0.85664816     0.32100
H216        H  0.31193346  0.04923705  0.86222043     0.38000
H217        H  0.28067475  0.29756779  0.81916387     0.32500
H218        H  0.38680556  0.32863532  0.82768729     0.31400
H219        H  0.45600354  0.30403556  0.83526430     0.33100
H220        H  0.43087424  0.18684558  0.84544487     0.32000
H221        H  0.23123313  0.25260434  0.85408842     0.36000
H222        H  0.27688062  0.19478559  0.92364119     0.28800
H223        H  0.30110504  0.16263097  0.73352498     0.33000
H224        H  0.38867342  0.09243602  0.81637578     0.35800
H225        H  0.41863767  0.33130635  0.80936845     0.28500
H226        H  0.28849842  0.16336163  0.93436982     0.41300
H227        H  0.17463763  0.09090912  0.81886651     0.31400
H228        H  0.18770925  0.16514759  0.84251257     0.39000
H229        H  0.42761413  0.18445603  0.81722705     0.30800
H230        H  0.24067931  0.02127205  0.83887746     0.30900
H231        H  0.32657472  0.14387608  0.74110212     0.31200
C232        C  0.04482331  0.14080156  0.57514076     0.03300
C233        C  0.07771269  0.13831216  0.57899342    -0.12900
C234        C  0.10905652  0.17004439  0.58950124     0.00800
C235        C  0.10766624  0.20412599  0.59683933    -0.11400
C236        C  0.07516746  0.20737404  0.59421418     0.03300
C237        C  0.04324034  0.17558090  0.58306727    -0.10800
H238        H  0.07991639  0.11271289  0.57252399     0.08900
H239        H  0.13205164  0.22789374  0.60557223     0.06400
H240        H  0.01794245  0.17786368  0.58056782     0.06200
C241        C  0.03586988  0.38680448  0.60285942     0.03300
C242        C  0.99784526  0.35361033  0.60600052    -0.12900
C243        C  0.96782481  0.35756715  0.59769111     0.00800
C244        C  0.97547396  0.39504684  0.58615831    -0.11400
C245        C  0.01341056  0.42896943  0.58206235     0.03300
C246        C  0.04416570  0.42474489  0.59032450    -0.10800
H247        H  0.99141208  0.32438454  0.61533847     0.08900
H248        H  0.45243513  0.39624685  0.57944236     0.06400
H249        H  0.07351675  0.45048658  0.58761532     0.06200
C250        C  0.32529169  0.45850913  0.56702084     0.03300
C251        C  0.32252713  0.49352555  0.57030560    -0.12900
C252        C  0.28845929  0.48950546  0.57961280     0.00800
C253        C  0.25662061  0.45048200  0.58553134    -0.11400
C254        C  0.25872611  0.41447787  0.58424817     0.03300
C255        C  0.29361955  0.41831044  0.57475521    -0.10800
H256        H  0.34755717  0.02707299  0.56401408     0.08900
H257        H  0.23066004  0.44874015  0.59299933     0.06400
H258        H  0.29591678  0.39100512  0.57318025     0.06200
C259        C  0.25137102  0.17424963  0.60322530     0.80400
N260        N  0.28550539  0.21034021  0.60377334    -0.77900
C261        C  0.31885988  0.20998253  0.60246005     0.82800
N262        N  0.31808153  0.17382712  0.60042384    -0.77900
C263        C  0.28414678  0.13785024  0.60018194     0.82900
N264        N  0.25095308  0.13823250  0.60141507    -0.79600
Zr265      Zr  0.14583939  0.34044009  0.71550656     2.17500
O266        O  0.14078313  0.32191661  0.75919482    -0.51200
O267        O  0.16948650  0.40761791  0.73432340    -0.74400
O268        O  0.19121012  0.31681417  0.72740268    -0.81200
O269        O  0.04266246  0.32586091  0.71512824    -0.82900
O270        O  0.22026346  0.31384735  0.69205083    -0.78500
O271        O  0.07966199  0.30492059  0.73418162    -0.90200
O272        O  0.21250138  0.45700635  0.70647620    -0.76100
O273        O  0.19914979  0.38144421  0.68642394    -0.85600
O274        O  0.13284001  0.38985958  0.69574172    -0.85300
O275        O  0.14514790  0.29287979  0.68693737    -0.72100
O276        O  0.08833814  0.30307195  0.69425989    -0.84200
Zr277      Zr  0.13048162  0.34794012  0.61752912     2.26400
Zr278      Zr  0.19793176  0.33475117  0.65725973     2.06300
Zr279      Zr  0.07613205  0.35305699  0.67481653     2.10000
Zr280      Zr  0.18648201  0.43184580  0.66776085     1.78800
O281        O  0.00675424  0.31042738  0.67255042    -0.93000
O282        O  0.25580175  0.47232404  0.65797564    -0.40800
O283        O  0.12948213  0.39480786  0.64588353    -0.77500
O284        O  0.18760547  0.38741690  0.63920243    -0.96100
O285        O  0.14025717  0.29614403  0.63681386    -0.89400
O286        O  0.07623180  0.30733178  0.64592807    -0.92300
C287        C  0.19296251  0.44606056  0.72695131     1.01500
C288        C  0.04777781  0.30458793  0.73198212     1.14400
C289        C  0.21520833  0.30997932  0.71536313     1.05200
O290        O  0.26765905  0.36843249  0.65703254    -0.94400
O291        O  0.23361842  0.36316105  0.61733962    -0.90200
O292        O  0.19229181  0.37164233  0.59401280    -0.83300
C293        C  0.22600341  0.37752192  0.59796729     1.11800
O294        O  0.06204670  0.19999608  0.69803992    -0.96400
Zr295      Zr  0.08683602  0.25659296  0.66599241     1.88900
O296        O  0.10223851  0.27902557  0.60062217    -0.73100
O297        O  0.19215426  0.27147709  0.64304729    -0.52300
O298        O  0.10805127  0.20743328  0.65910456    -0.97000
O299        O  0.01782211  0.22135702  0.67673992    -0.54200
O300        O  0.05753278  0.23058726  0.62825575    -0.73600
C301        C  0.07586844  0.24122026  0.60738956     0.98800
O302        O  0.12993605  0.37096259  0.57534924    -0.62400
O303        O  0.07289430  0.41258249  0.68773134    -0.57200
O304        O  0.08715110  0.37276793  0.60514737    -0.93900
O305        O  0.05707707  0.37708322  0.63968262    -0.92300
O306        O  0.16358362  0.47976749  0.67366468    -0.92700
O307        O  0.21011811  0.48755193  0.63532673    -0.91500
C308        C  0.06338482  0.38053886  0.61648827     1.17600
H309        H  0.12706092  0.40526596  0.70673999     0.33500
H310        H  0.20944324  0.40848113  0.62926882     0.44400
H311        H  0.05258233  0.29485215  0.63772543     0.37900
H312        H  0.14810889  0.27148707  0.69522087     0.34400
H313        H  0.26539351  0.49611892  0.66824666     0.26200
H314        H  0.20773106  0.28027444  0.62729166     0.32100
H315        H  0.08713882  0.18503858  0.65066597     0.38000
H316        H  0.18581853  0.50466629  0.67951333     0.32500
H317        H  0.04875216  0.40897704  0.68157225     0.31400
H318        H  0.49424720  0.32248944  0.67794739     0.33100
H319        H  0.00699173  0.22953477  0.66317178     0.32000
H320        H  0.19574591  0.47389268  0.62111444     0.36000
H321        H  0.15289086  0.39918460  0.57253265     0.28800
H322        H  0.16715216  0.33853339  0.76464017     0.33000
H323        H  0.04543011  0.17425649  0.69002937     0.35800
H324        H  0.06763591  0.40766352  0.70566418     0.28500
H325        H  0.13561893  0.35339242  0.56522385     0.41300
H326        H  0.27603593  0.39556534  0.66366290     0.31400
H327        H  0.26567521  0.45505439  0.66502836     0.39000
H328        H  0.01524695  0.23568791  0.69065548     0.30800
H329        H  0.20684242  0.26426554  0.65427861     0.30900
H330        H  0.13488810  0.29281963  0.76066451     0.31200
C331        C  0.40128515  0.36721792  0.42861293     0.03300
C332        C  0.40195689  0.33163372  0.42155904    -0.12900
C333        C  0.36779410  0.29700610  0.41432109     0.00800
C334        C  0.33377335  0.29807787  0.41532351    -0.11400
C335        C  0.33384929  0.33400931  0.42031010     0.03300
C336        C  0.36736738  0.36838015  0.42692093    -0.10800
H337        H  0.42844788  0.33107859  0.42148631     0.08900
H338        H  0.30750122  0.27228925  0.40966130     0.06400
H339        H  0.36652128  0.39568584  0.43146959     0.06200
C340        C  0.41128089  0.12922154  0.39463194     0.03300
C341        C  0.44972632  0.16047045  0.38937397    -0.12900
C342        C  0.47925058  0.15703387  0.39901292     0.00800
C343        C  0.47115489  0.12202849  0.41346673    -0.11400
C344        C  0.43314668  0.09006514  0.41943489     0.03300
C345        C  0.40249849  0.09389309  0.41041343    -0.10800
H346        H  0.45681093  0.18842479  0.37819996     0.08900
H347        H  0.49496421  0.12100896  0.42129058     0.06400
H348        H  0.37290284  0.06961272  0.41486124     0.06200
C349        C  0.11381775  0.03930345  0.43176026     0.03300
C350        C  0.11582138  0.00422900  0.42704355    -0.12900
C351        C  0.14883220  0.00860978  0.41554486     0.00800
C352        C  0.18034104  0.04753100  0.40904547    -0.11400
C353        C  0.17919147  0.08343604  0.41262297     0.03300
C354        C  0.14531949  0.07955877  0.42394081    -0.10800
H355        H  0.09199080  0.97340578  0.43286169     0.08900
H356        H  0.20547226  0.04949918  0.39987333     0.06400
H357        H  0.14377126  0.10695689  0.42700121     0.06200
C358        C  0.19671200  0.33433562  0.39663745     0.80400
N359        N  0.19798623  0.37114886  0.39545326    -0.77900
C360        C  0.16568573  0.37251938  0.39223313     0.82800
N361        N  0.13219319  0.33697932  0.39019605    -0.77900
C362        C  0.13032062  0.29994174  0.39183065     0.82900
N363        N  0.16265718  0.29849599  0.39527279    -0.79600
Zr364      Zr  0.48264795  0.00766009  0.45178898     2.17500
O365        O  0.99859249  0.02599460  0.40661793    -0.51200
O366        O  0.44348682  0.43890936  0.43425639    -0.74400
O367        O  0.05033130  0.02756742  0.43713407    -0.81200
O368        O  0.40567155  0.04344992  0.45538825    -0.82900
O369        O  0.08155475  0.02483825  0.47025974    -0.78500
O370        O  0.45532645  0.04635251  0.43294159    -0.90200
O371        O  0.43885392  0.39074840  0.46225488    -0.76100
O372        O  0.49153341  0.46222247  0.47958761    -0.85600
O373        O  0.41973030  0.46149572  0.47197986    -0.85300
O374        O  0.03060269  0.05193001  0.47829985    -0.72100
O375        O  0.46568493  0.05038090  0.47360905    -0.84200
Zr376      Zr  0.45878711  0.50286964  0.54917642     2.26400
Zr377      Zr  0.03763044  0.00503240  0.50615313     2.06300
Zr378      Zr  0.40383213  0.00583396  0.49366290     2.10000
Zr379      Zr  0.42922840  0.41697236  0.49934251     1.78800
O380        O  0.37928087  0.05149365  0.50244543    -0.93000
O381        O  0.44777111  0.36635777  0.51064660    -0.40800
O382        O  0.41244790  0.45950111  0.52146520    -0.77500
O383        O  0.47408831  0.45823133  0.52715800    -0.96100
O384        O  0.02201318  0.04925615  0.52741181    -0.89400
O385        O  0.44905757  0.04874970  0.52193206    -0.92300
C386        C  0.43185156  0.40093232  0.44152510     1.01500
C387        C  0.42925985  0.05606308  0.43636670     1.14400
C388        C  0.08010900  0.03141756  0.44730777     1.05200
O389        O  0.06389092  0.46201431  0.50310903    -0.94400
O390        O  0.03936312  0.47585937  0.54636839    -0.90200
O391        O  0.99137925  0.47378521  0.57043805    -0.83300
C392        C  0.01755157  0.46445568  0.56625392     1.11800
O393        O  0.04660194  0.14480768  0.46536732    -0.96400
Zr394      Zr  0.01222535  0.09388462  0.49993885     1.88900
O395        O  0.50008535  0.07105654  0.56633291    -0.73100
O396        O  0.09689202  0.06053775  0.52059341    -0.52300
O397        O  0.08033437  0.14034976  0.50539805    -0.97000
O398        O  0.98382018  0.13664229  0.49145004    -0.54200
O399        O  0.01514982  0.12436568  0.53800584    -0.73600
C400        C  0.01724175  0.11015220  0.55908014     0.98800
O401        O  0.43546335  0.48534477  0.59205745    -0.62400
O402        O  0.34131483  0.45646189  0.47774822    -0.57200
O403        O  0.39123470  0.47815023  0.56239412    -0.93900
O404        O  0.35807122  0.97268766  0.52866699    -0.92300
O405        O  0.36308880  0.37496906  0.48827549    -0.92700
O406        O  0.38976243  0.36572279  0.53267337    -0.91500
C407        C  0.36053450  0.96961887  0.55175912     1.17600
H408        H  0.40005898  0.44646029  0.46095153     0.33500
H409        H  0.47301442  0.43567948  0.53693428     0.44400
H410        H  0.43955309  0.06353520  0.53093731     0.37900
H411        H  0.05478659  0.07201213  0.46974403     0.34400
H412        H  0.43057593  0.34148782  0.50211555     0.26200
H413        H  0.09191773  0.05895227  0.53847905     0.32100
H414        H  0.08432003  0.13231540  0.52196954     0.38000
H415        H  0.36047598  0.34826589  0.48425367     0.32500
H416        H  0.32508840  0.46876639  0.48072968     0.31400
H417        H  0.35091924  0.03340312  0.50340281     0.33100
H418        H  0.96401214  0.12886726  0.50495323     0.32000
H419        H  0.39983444  0.37999037  0.54768786     0.36000
H420        H  0.42777236  0.45583688  0.59536167     0.28800
H421        H  0.00815826  0.00812942  0.40075724     0.33000
H422        H  0.05432689  0.17217571  0.47147804     0.35800
H423        H  0.34643310  0.45983759  0.45980700     0.28500
H424        H  0.45855388  0.50097796  0.60130536     0.41300
H425        H  0.04271726  0.43537635  0.49815611     0.31400
H426        H  0.47351033  0.37750273  0.50220022     0.39000
H427        H  0.46512732  0.12399991  0.47858582     0.30800
H428        H  0.11558971  0.05111668  0.51856711     0.30900
H429        H  0.02117011  0.05457267  0.40474038     0.31200
C430        C  0.21108558  0.48005287  0.24159419     0.03300
C431        C  0.21061810  0.01302661  0.25073824    -0.12900
C432        C  0.24489031  0.04763820  0.25784668     0.00800
C433        C  0.27922090  0.04731523  0.25588818    -0.11400
C434        C  0.27972711  0.01262630  0.24873361     0.03300
C435        C  0.24539037  0.47940275  0.24157471    -0.10800
H436        H  0.18387250  0.01307109  0.25180366     0.08900
H437        H  0.30538744  0.07288367  0.26202420     0.06400
H438        H  0.24623276  0.45274100  0.23562240     0.06200
C439        C  0.20573663  0.22459248  0.27525896     0.03300
C440        C  0.16741332  0.19193108  0.27717450    -0.12900
C441        C  0.13877141  0.19695669  0.26743416     0.00800
C442        C  0.14755989  0.23499668  0.25651394    -0.11400
C443        C  0.18558356  0.26844595  0.25343429     0.03300
C444        C  0.21549156  0.26311771  0.26250788    -0.10800
H445        H  0.15984300  0.16188085  0.28585596     0.08900
H446        H  0.12444328  0.23724738  0.24855178     0.06400
H447        H  0.24512798  0.28828523  0.26021636     0.06200
C448        C  0.99552270  0.29834054  0.23423095     0.03300
C449        C  0.99344225  0.33413585  0.23598413    -0.12900
C450        C  0.46000643  0.32962043  0.24866964     0.00800
C451        C  0.42799784  0.29110228  0.25569617    -0.11400
C452        C  0.42873662  0.25437985  0.25361729     0.03300
C453        C  0.46237971  0.25694450  0.24293902    -0.10800
H454        H  0.01779984  0.36428825  0.22955044     0.08900
H455        H  0.40287122  0.29017596  0.26403430     0.06400
H456        H  0.46359861  0.22907779  0.24094142     0.06200
C457        C  0.42116320  0.01470056  0.25983374     0.80400
N458        N  0.45485335  0.05070868  0.26134999    -0.77900
C459        C  0.98949098  0.05513086  0.25710216     0.82800
N460        N  0.98871159  0.01871743  0.25640058    -0.77900
C461        C  0.45304514  0.47722804  0.26032521     0.82900
N462        N  0.42034340  0.47817677  0.25784984    -0.79600
Zr463      Zr  0.15742947  0.34911568  0.12065940     2.17500
O464        O  0.17499131  0.36786241  0.07706866    -0.51200
O465        O  0.12027761  0.28333292  0.10033244    -0.74400
O466        O  0.22635207  0.37584699  0.10769218    -0.81200
O467        O  0.07317106  0.37460000  0.12434487    -0.82900
O468        O  0.25464468  0.37268297  0.14219470    -0.78500
O469        O  0.12969053  0.38990689  0.10450123    -0.90200
O470        O  0.10258108  0.22845085  0.12769097    -0.76100
O471        O  0.16756738  0.30470801  0.14814632    -0.85600
O472        O  0.09482210  0.30051139  0.13956545    -0.85300
O473        O  0.20056228  0.39322478  0.14987159    -0.72100
O474        O  0.13547607  0.38651333  0.14354921    -0.84200
Zr475      Zr  0.12871492  0.33985837  0.21849230     2.26400
Zr476      Zr  0.20950133  0.34785783  0.17787971     2.06300
Zr477      Zr  0.07349175  0.33833398  0.16254374     2.10000
Zr478      Zr  0.10500794  0.25636727  0.16671763     1.78800
O479        O  0.04625730  0.38162638  0.17101761    -0.93000
O480        O  0.13182206  0.21129416  0.17148714    -0.40800
O481        O  0.08428158  0.29463190  0.19024581    -0.77500
O482        O  0.14676533  0.29780395  0.19599964    -0.96100
O483        O  0.18969307  0.38887670  0.19898986    -0.89400
O484        O  0.11628328  0.38272609  0.19139785    -0.92300
C485        C  0.10358599  0.24385960  0.10627555     1.01500
C486        C  0.10031186  0.39465272  0.10751368     1.14400
C487        C  0.25567985  0.38072655  0.11905558     1.05200
O488        O  0.24086849  0.30745036  0.17408988    -0.94400
O489        O  0.21158879  0.31529382  0.21754439    -0.90200
O490        O  0.16342366  0.31300045  0.24155498    -0.83300
C491        C  0.18989537  0.30399816  0.23748933     1.11800
O492        O  0.21497752  0.48676201  0.13962792    -0.96400
Zr493      Zr  0.17757470  0.43136774  0.17140560     1.88900
O494        O  0.16913681  0.40840363  0.23513336    -0.73100
O495        O  0.26629923  0.40374351  0.19438901    -0.52300
O496        O  0.24349861  0.47759771  0.18173492    -0.97000
O497        O  0.14824410  0.47195845  0.15951620    -0.54200
O498        O  0.17074533  0.45736458  0.20917752    -0.73600
C499        C  0.17961567  0.44654636  0.22898750     0.98800
O500        O  0.10946320  0.31920820  0.26186427    -0.62400
O501        O  0.01425297  0.28744604  0.14545053    -0.57200
O502        O  0.06166685  0.31906721  0.23055092    -0.93900
O503        O  0.02698474  0.30280074  0.19698790    -0.92300
O504        O  0.03624692  0.21399167  0.16190111    -0.92700
O505        O  0.07274932  0.20013353  0.19878902    -0.91500
C506        C  0.02983577  0.30482414  0.22003896     1.17600
H507        H  0.07550237  0.28549264  0.12832278     0.33500
H508        H  0.14602105  0.27570816  0.20605159     0.44400
H509        H  0.10500204  0.39610875  0.20011488     0.37900
H510        H  0.22454267  0.41490854  0.14187606     0.34400
H511        H  0.15162290  0.22067159  0.15777835     0.26200
H512        H  0.26030977  0.40008896  0.21225931     0.32100
H513        H  0.25943801  0.47026646  0.17150553     0.38000
H514        H  0.03298563  0.18941452  0.15394863     0.32500
H515        H  0.00366799  0.26210150  0.15670406     0.31400
H516        H  0.01859827  0.36427265  0.16824030     0.33100
H517        H  0.15406055  0.49164660  0.17226786     0.32000
H518        H  0.07395460  0.21407403  0.21382010     0.36000
H519        H  0.10049619  0.33758007  0.26775629     0.28800
H520        H  0.18235402  0.34800556  0.07149982     0.33000
H521        H  0.22275284  0.51298515  0.14728997     0.35800
H522        H  0.99622828  0.29763040  0.14802592     0.28500
H523        H  0.08633248  0.29102399  0.26291647     0.41300
H524        H  0.22548684  0.28628683  0.16275636     0.31400
H525        H  0.14673675  0.21981486  0.18615355     0.39000
H526        H  0.12019113  0.45226494  0.16201885     0.30800
H527        H  0.28630993  0.39622748  0.19207705     0.30900
H528        H  0.15046942  0.35954487  0.06951434     0.31200
Zr529      Zr  0.31192806  0.16211010  0.38388958     2.17500
O530        O  0.30962567  0.13482405  0.42551352    -0.51200
O531        O  0.33972412  0.22607539  0.40581126    -0.74400
O532        O  0.35685009  0.13838875  0.39416961    -0.81200
O533        O  0.20572104  0.14192021  0.38386265    -0.82900
O534        O  0.39014953  0.14361969  0.35863977    -0.78500
O535        O  0.24579119  0.12552714  0.40300546    -0.90200
O536        O  0.38500128  0.27546860  0.37915115    -0.76100
O537        O  0.36601365  0.20716623  0.35628442    -0.85600
O538        O  0.29906631  0.21429917  0.36835053    -0.85300
O539        O  0.31372267  0.11985011  0.35253009    -0.72100
O540        O  0.25512537  0.12802065  0.36178547    -0.84200
Zr541      Zr  0.29988983  0.18419524  0.28716046     2.26400
Zr542      Zr  0.36729103  0.16609259  0.32440553     2.06300
Zr543      Zr  0.24305889  0.18048366  0.34596478     2.10000
Zr544      Zr  0.35322471  0.25939423  0.34128291     1.78800
O545        O  0.17355433  0.14647623  0.34416491    -0.93000
O546        O  0.42137115  0.30517323  0.32940498    -0.40800
O547        O  0.29701856  0.22585943  0.31841062    -0.77500
O548        O  0.35659424  0.22052847  0.30979299    -0.96100
O549        O  0.31021387  0.13067183  0.30297890    -0.89400
O550        O  0.24485149  0.13950163  0.31434318    -0.92300
C551        C  0.36643411  0.26398093  0.39994792     1.01500
C552        C  0.21243000  0.12160318  0.40048685     1.14400
C553        C  0.38310492  0.13584058  0.38184307     1.05200
O554        O  0.43712143  0.20033557  0.32370487    -0.94400
O555        O  0.40315842  0.20011142  0.28512379    -0.90200
O556        O  0.36235131  0.21259179  0.26375287    -0.83300
C557        C  0.39578982  0.21719746  0.26689838     1.11800
O558        O  0.23674350  0.02671581  0.35962481    -0.96400
Zr559      Zr  0.25605990  0.08670891  0.33079893     1.88900
O560        O  0.27353577  0.11818159  0.26730804    -0.73100
O561        O  0.36309567  0.10562122  0.30695264    -0.52300
O562        O  0.27758319  0.04128053  0.31595577    -0.97000
O563        O  0.18755979  0.04555962  0.34321768    -0.54200
O564        O  0.22612097  0.06823431  0.29265998    -0.73600
C565        C  0.24616564  0.08029022  0.27245088     0.98800
O566        O  0.29853098  0.20966923  0.24571528    -0.62400
O567        O  0.24367323  0.23964828  0.36291929    -0.57200
O568        O  0.25818212  0.21203265  0.27653375    -0.93900
O569        O  0.22361851  0.20644349  0.31149826    -0.92300
O570        O  0.33275230  0.30498426  0.35703497    -0.92700
O571        O  0.36733586  0.31695644  0.31191911    -0.91500
C572        C  0.23229999  0.21571654  0.28850512     1.17600
H573        H  0.29419668  0.22833607  0.38088690     0.33500
H574        H  0.37849604  0.24321490  0.30068252     0.44400
H575        H  0.22144809  0.12827468  0.30590880     0.37900
H576        H  0.31699598  0.09781747  0.35951507     0.34400
H577        H  0.42983549  0.32887671  0.33966118     0.26200
H578        H  0.37400712  0.11523643  0.28990604     0.32100
H579        H  0.25456048  0.01814395  0.30946339     0.38000
H580        H  0.35653966  0.32824159  0.36272734     0.32500
H581        H  0.23009439  0.24799899  0.35140765     0.31400
H582        H  0.16694318  0.12489832  0.33253238     0.33100
H583        H  0.17425009  0.04647586  0.32864574     0.32000
H584        H  0.36256466  0.30490714  0.29590748     0.36000
H585        H  0.32061616  0.23854347  0.24358682     0.28800
H586        H  0.29722121  0.14627212  0.43578430     0.33000
H587        H  0.22002932  0.00188500  0.35091084     0.35800
H588        H  0.22589692  0.22771577  0.37775731     0.28500
H589        H  0.30561969  0.19394388  0.23490032     0.41300
H590        H  0.44445997  0.22045086  0.33634757     0.31400
H591        H  0.43382724  0.29009860  0.33580860     0.39000
H592        H  0.18307448  0.06238013  0.35469944     0.30800
H593        H  0.38236595  0.10136321  0.31514616     0.30900
H594        H  0.29057536  0.10471798  0.42595837     0.31200
C595        C  0.45840930  0.36740443  0.25180082    -0.05200
C596        C  0.96933950  0.38929450  0.26999814    -0.02300
C597        C  0.96564218  0.42394124  0.27350642     0.02700
C598        C  0.45311954  0.43825971  0.25813545    -0.05200
C599        C  0.43911744  0.41597205  0.23722820    -0.02300
C600        C  0.44215277  0.38083570  0.23400369     0.02700
C601        C  0.98556258  0.37491221  0.28846343     0.37300
C602        C  0.42272670  0.42977967  0.21855504     0.37300
C603        C  0.42961559  0.35897347  0.21204481     0.35700
C604        C  0.97396972  0.44255336  0.29668951     0.35700
N605        N  0.42006623  0.34139765  0.19456730    -0.39100
N606        N  0.98031519  0.45742340  0.31516397    -0.39100
N607        N  0.40945331  0.44048346  0.20364130    -0.38500
N608        N  0.99923752  0.36397548  0.30296497    -0.38500
C609        C  0.02672168  0.09336545  0.25891879    -0.05200
C610        C  0.03176756  0.12018324  0.27738545    -0.02300
C611        C  0.06855405  0.15448307  0.28016034     0.02700
C612        C  0.10029299  0.16085216  0.26513852    -0.05200
C613        C  0.09507662  0.13477212  0.24628960    -0.02300
C614        C  0.05824668  0.10151537  0.24291065     0.02700
C615        C  0.99952178  0.11180146  0.29394151     0.37300
C616        C  0.12752337  0.14284270  0.22995457     0.37300
C617        C  0.05259124  0.07648882  0.22241945     0.35700
C618        C  0.07387894  0.18356889  0.29816598     0.35700
N619        N  0.04789697  0.05659658  0.20605100    -0.39100
N620        N  0.07837747  0.20732878  0.31220577    -0.39100
N621        N  0.15336268  0.14926739  0.21694102    -0.38500
N622        N  0.97368098  0.10490111  0.30710975    -0.38500
C623        C  0.38538528  0.01486289  0.25699177    -0.05200
C624        C  0.38216552  0.03738536  0.23681915    -0.02300
C625        C  0.34722565  0.03606877  0.23378330     0.02700
C626        C  0.31539626  0.01152521  0.25060143    -0.05200
C627        C  0.31797770  0.48817617  0.26854403    -0.02300
C628        C  0.35302517  0.48967829  0.27141274     0.02700
C629        C  0.41425014  0.06069562  0.21874273     0.37300
C630        C  0.28529120  0.46296609  0.28591819     0.37300
C631        C  0.35657955  0.46665157  0.29214823     0.35700
C632        C  0.34398418  0.05978079  0.21331337     0.35700
N633        N  0.35945574  0.44844093  0.30874035    -0.39100
N634        N  0.34175299  0.07890205  0.19695810    -0.39100
N635        N  0.25894401  0.44297803  0.29957316    -0.38500
N636        N  0.43966339  0.07914144  0.20421594    -0.38500
C637        C  0.15178651  0.97247831  0.41056446    -0.05200
C638        C  0.13738046  0.45401225  0.38863359    -0.02300
C639        C  0.14438638  0.42278184  0.38177795     0.02700
C640        C  0.16428301  0.40988025  0.39708078    -0.05200
C641        C  0.17737683  0.42856320  0.41919923    -0.02300
C642        C  0.17169023  0.96056233  0.42632339     0.02700
C643        C  0.11592975  0.46657106  0.37336937     0.37300
C644        C  0.19518826  0.41346260  0.43608651     0.37300
C645        C  0.18508777  0.98107264  0.44865817     0.35700
C646        C  0.13118633  0.40397954  0.35898174     0.35700
N647        N  0.19555291  0.99762774  0.46639887    -0.39100
N648        N  0.12063761  0.38895275  0.34081892    -0.39100
N649        N  0.20918341  0.40121237  0.44955113    -0.38500
N650        N  0.09857132  0.47647980  0.36137901    -0.38500
C651        C  0.09208142  0.26196264  0.39412902    -0.05200
C652        C  0.08429629  0.22734160  0.38108721    -0.02300
C653        C  0.54717630  0.19486825  0.38123619     0.02700
C654        C  0.51840672  0.19297624  0.39735843    -0.05200
C655        C  0.02475812  0.22764689  0.40927458    -0.02300
C656        C  0.06245006  0.26115453  0.40907787     0.02700
C657        C  0.11475486  0.22689348  0.36668329     0.37300
C658        C  0.49850108  0.22023400  0.43161595     0.37300
C659        C  0.07081819  0.29384423  0.42522222     0.35700
C660        C  0.53825949  0.16092300  0.36613323     0.35700
N661        N  0.07752624  0.31982772  0.43810003    -0.39100
N662        N  0.53127308  0.13368471  0.35424069    -0.39100
N663        N  0.47595753  0.21722456  0.44636701    -0.38500
N664        N  0.13887531  0.22607820  0.35525480    -0.38500
C665        C  0.23149198  0.33359572  0.40262454    -0.05200
C666        C  0.23070436  0.30943202  0.42342798    -0.02300
C667        C  0.26463104  0.31074750  0.42982445     0.02700
C668        C  0.29938728  0.33649385  0.41561110    -0.05200
C669        C  0.30026846  0.36117678  0.39508614    -0.02300
C670        C  0.26637704  0.35973147  0.38861902     0.02700
C671        C  0.19535793  0.28416164  0.43869874     0.37300
C672        C  0.33573069  0.38690372  0.38001272     0.37300
C673        C  0.26727381  0.38445264  0.36715871     0.35700
C674        C  0.26378574  0.28547763  0.45096771     0.35700
N675        N  0.26800997  0.40425582  0.35010704    -0.39100
N676        N  0.26296470  0.26511320  0.46775527    -0.39100
N677        N  0.36392689  0.40735909  0.36792612    -0.38500
N678        N  0.16718462  0.26399063  0.45086254    -0.38500
C679        C  0.28817191  0.02964652  0.58489418    -0.05200
C680        C  0.30918092  0.05372211  0.60377784    -0.02300
C681        C  0.30687577  0.08850333  0.60933713     0.02700
C682        C  0.28379596  0.09937520  0.59586529    -0.05200
C683        C  0.26233251  0.07483307  0.57717710    -0.02300
C684        C  0.26466575  0.04005860  0.57167742     0.02700
C685        C  0.33305642  0.04257064  0.61751853     0.37300
C686        C  0.23899536  0.08606472  0.56287244     0.37300
C687        C  0.24398998  0.01588219  0.55180363     0.35700
C688        C  0.32761336  0.11261985  0.62923385     0.35700
N689        N  0.22757843  0.99688731  0.53586156    -0.39100
N690        N  0.34405208  0.13211121  0.64501941    -0.39100
N691        N  0.22028186  0.09490656  0.55152891    -0.38500
N692        N  0.35223963  0.03368567  0.62828919    -0.38500
C693        C  0.43004544  0.31982476  0.59745011    -0.05200
C694        C  0.40500293  0.31044374  0.61832370    -0.02300
C695        C  0.36822620  0.27448075  0.61999563     0.02700
C696        C  0.35616391  0.24892046  0.60039135    -0.05200
C697        C  0.38084290  0.25913043  0.57916622    -0.02300
C698        C  0.41805443  0.29414149  0.57790622     0.02700
C699        C  0.41746707  0.33748774  0.63814778     0.37300
C700        C  0.36785766  0.23362379  0.55860180     0.37300
C701        C  0.44439386  0.30313722  0.55681959     0.35700
C702        C  0.34366308  0.26243494  0.64231054     0.35700
N703        N  0.96533735  0.31089458  0.54233191    -0.39100
N704        N  0.32402669  0.25228137  0.66013059    -0.39100
N705        N  0.35727649  0.21315236  0.54229159    -0.38500
N706        N  0.42764336  0.35931355  0.65384445    -0.38500
C707        C  0.21521218  0.17425042  0.60067240    -0.05200
C708        C  0.21405493  0.20236884  0.58311790    -0.02300
C709        C  0.17900332  0.20007142  0.57906997     0.02700
C710        C  0.14484364  0.16935004  0.59221949    -0.05200
C711        C  0.14558722  0.14030560  0.60911023    -0.02300
C712        C  0.18077731  0.14295148  0.61351894     0.02700
C713        C  0.24831831  0.23209656  0.56803491     0.37300
C714        C  0.11016954  0.10763437  0.62186619     0.37300
C715        C  0.18142361  0.11335500  0.63125983     0.35700
C716        C  0.17785329  0.22859764  0.56073508     0.35700
N717        N  0.18198339  0.08955484  0.64520060    -0.39100
N718        N  0.17696864  0.25132006  0.54611875    -0.39100
N719        N  0.08188443  0.08123676  0.63179809    -0.38500
N720        N  0.27550626  0.25565070  0.55588753    -0.38500
C721        C  0.47954072  0.08891436  0.72859775    -0.05200
C722        C  0.99489089  0.10716258  0.75120343    -0.02300
C723        C  0.98998256  0.13928799  0.75926493     0.02700
C724        C  0.46788093  0.15250306  0.74384541    -0.05200
C725        C  0.45430337  0.13519206  0.72157179    -0.02300
C726        C  0.46007129  0.10339085  0.71394909     0.02700
C727        C  0.01347669  0.09069913  0.76636853     0.37300
C728        C  0.43605525  0.15149703  0.70596754     0.37300
C729        C  0.44779610  0.08717186  0.69041973     0.35700
C730        C  0.00415570  0.15638702  0.78231741     0.35700
N731        N  0.43812336  0.07424070  0.67164980    -0.39100
N732        N  0.01529930  0.17001692  0.80072653    -0.39100
N733        N  0.42160414  0.16450739  0.69343816    -0.38500
N734        N  0.02835910  0.07761265  0.77843300    -0.38500
C735        C  0.05537518  0.02054296  0.72162868    -0.05200
C736        C  0.09273885  0.05236561  0.71292492    -0.02300
C737        C  0.12494286  0.04956822  0.71902767     0.02700
C738        C  0.11994868  0.01547632  0.73421967    -0.05200
C739        C  0.08285162  0.48567147  0.74167267    -0.02300
C740        C  0.05018602  0.48688218  0.73510601     0.02700
C741        C  0.09822414  0.08768905  0.69745974     0.37300
C742        C  0.07835470  0.45148857  0.75790701     0.37300
C743        C  0.01260285  0.45274156  0.74429640     0.35700
C744        C  0.16324855  0.08125667  0.70931420     0.35700
N745        N  0.48289369  0.42918651  0.75832521    -0.39100
N746        N  0.19398641  0.10626913  0.70174123    -0.39100
N747        N  0.07479217  0.42432207  0.77086746    -0.38500
N748        N  0.10306218  0.11617684  0.68523513    -0.38500
C749        C  0.35166601  0.36564484  0.72113880    -0.05200
C750        C  0.36806253  0.38240810  0.69728533    -0.02300
C751        C  0.40206364  0.42145250  0.69376791     0.02700
C752        C  0.41860569  0.44406027  0.71404705    -0.05200
C753        C  0.40198977  0.42736627  0.73787616    -0.02300
C754        C  0.36898946  0.38789498  0.74143528     0.02700
C755        C  0.34901119  0.36025350  0.67644382     0.37300
C756        C  0.41804003  0.45132770  0.75878303     0.37300
C757        C  0.35135843  0.37135032  0.76592533     0.35700
C758        C  0.41902262  0.43901657  0.66934555     0.35700
N759        N  0.33711105  0.35803772  0.78536835    -0.39100
N760        N  0.43226753  0.45271133  0.64975069    -0.39100
N761        N  0.43046616  0.47023761  0.77553052    -0.38500
N762        N  0.33353283  0.34277661  0.65983164    -0.37300
C763        C  0.06443751  0.31791397  0.93484408    -0.05200
C764        C  0.03569602  0.30315291  0.95409067    -0.02300
C765        C  0.50441631  0.30871494  0.95060374     0.02700
C766        C  0.50091841  0.32749952  0.92871797    -0.05200
C767        C  0.02857775  0.34083756  0.91044354    -0.02300
C768        C  0.06078139  0.33648780  0.91297141     0.02700
C769        C  0.03954381  0.28367727  0.97639030     0.37300
C770        C  0.02464793  0.35976848  0.88789910     0.37300
C771        C  0.09016172  0.35077892  0.89302368     0.35700
C772        C  0.47466679  0.29353453  0.97032210     0.35700
N773        N  0.11382853  0.36198236  0.87730638    -0.39100
N774        N  0.45093007  0.28115535  0.98608166    -0.39100
N775        N  0.02123528  0.37470779  0.86996447    -0.38500
N776        N  0.04265458  0.26795233  0.99409321    -0.38500
C777        C  0.13819643  0.24732213  0.92793927    -0.05200
C778        C  0.12574342  0.22936267  0.90561353    -0.02300
C779        C  0.12835795  0.19461248  0.90005531     0.02700
C780        C  0.14381937  0.17807633  0.91665751    -0.05200
C781        C  0.15827660  0.19745902  0.93830741    -0.02300
C782        C  0.15564285  0.23214794  0.94388595     0.02700
C783        C  0.11237679  0.24809336  0.88774756     0.37300
C784        C  0.17495288  0.18097902  0.95516360     0.37300
C785        C  0.17064458  0.25200473  0.96614569     0.35700
C786        C  0.11601450  0.17641129  0.87702165     0.35700
N787        N  0.18292398  0.26807402  0.98378629    -0.39100
N788        N  0.10642333  0.16214846  0.85855579    -0.39100
N789        N  0.18818454  0.16770775  0.96856303    -0.38500
N790        N  0.10222902  0.26336822  0.87336318    -0.38500
C791        C  0.27083721  0.47319807  0.93478477    -0.05200
C792        C  0.24470014  0.46138793  0.95530755    -0.02300
C793        C  0.21012857  0.42281474  0.95680081     0.02700
C794        C  0.20273216  0.39555182  0.93822578    -0.05200
C795        C  0.22881691  0.40787386  0.91750745    -0.02300
C796        C  0.26267980  0.44682635  0.91573117     0.02700
C797        C  0.25387685  0.48849723  0.97503191     0.37300
C798        C  0.22032391  0.38112612  0.89760316     0.37300
C799        C  0.28951203  0.45978697  0.89440422     0.35700
C800        C  0.18242055  0.41110207  0.97746846     0.35700
N801        N  0.31108168  0.47037413  0.87750431    -0.39100
N802        N  0.16013439  0.40195693  0.99382125    -0.39100
N803        N  0.21351743  0.35975807  0.88177171    -0.38500
N804        N  0.26544933  0.00383911  0.99423258    -0.38500
C805        C  0.18935089  0.04361163  0.08642442    -0.05200
C806        C  0.22176077  0.03877086  0.08811787    -0.02300
C807        C  0.25645132  0.07137596  0.09514009     0.02700
C808        C  0.26294946  0.11191064  0.09386705    -0.05200
C809        C  0.23140931  0.11791738  0.09037850    -0.02300
C810        C  0.19423038  0.08334424  0.08894703     0.02700
C811        C  0.22093978  0.49982678  0.08098940     0.37300
C812        C  0.23633267  0.15909131  0.08831969     0.37300
C813        C  0.16123746  0.08882723  0.09117030     0.35700
C814        C  0.28282070  0.06202695  0.10710169     0.35700
N815        N  0.13500193  0.09326219  0.09311805    -0.39100
N816        N  0.30278136  0.05430102  0.11784889    -0.39100
N817        N  0.23962679  0.19163019  0.08662824    -0.38500
N818        N  0.22015115  0.46979264  0.07607705    -0.38500
C819        C  0.34595143  0.25653323  0.10363520    -0.05200
C820        C  0.33606862  0.27051906  0.08237747    -0.02300
C821        C  0.33180994  0.30504029  0.08269807     0.02700
C822        C  0.33968774  0.32699771  0.10377355    -0.05200
C823        C  0.35046853  0.31376475  0.12490579    -0.02300
C824        C  0.35364258  0.27816439  0.12482181     0.02700
C825        C  0.32928779  0.24863767  0.06032331     0.37300
C826        C  0.35682569  0.33591770  0.14672627     0.37300
C827        C  0.36441349  0.26354693  0.14630008     0.35700
C828        C  0.31692986  0.31647106  0.06192462     0.35700
N829        N  0.37321009  0.25178852  0.16332213    -0.39100
N830        N  0.30445659  0.32527551  0.04562676    -0.39100
N831        N  0.36148226  0.35364600  0.16408910    -0.38500
N832        N  0.32390805  0.23107111  0.04284136    -0.38500
C833        C  0.47612321  0.18426488  0.07345069    -0.05200
C834        C  0.44176434  0.14596028  0.08014929    -0.02300
C835        C  0.40603830  0.14312069  0.07887405     0.02700
C836        C  0.40424480  0.17958300  0.07616163    -0.05200
C837        C  0.43796969  0.21715299  0.06741444    -0.02300
C838        C  0.47368552  0.21914789  0.06546437     0.02700
C839        C  0.44251175  0.10932108  0.08926403     0.37300
C840        C  0.43567342  0.25308090  0.05900020     0.37300
C841        C  0.50759664  0.25693062  0.05509200     0.35700
C842        C  0.37246585  0.10265879  0.07685739     0.35700
N843        N  0.03488858  0.28710211  0.04880797    -0.39100
N844        N  0.34730088  0.06995505  0.07360996    -0.39100
N845        N  0.43378066  0.28162226  0.05216224    -0.38500
N846        N  0.44292971  0.08002699  0.09642805    -0.38500
C847        C  0.07907380  0.71527837  0.08858980     0.03300
C848        C  0.08066676  0.68037742  0.08082492    -0.12900
C849        C  0.04974979  0.64996599  0.06833456     0.00800
C850        C  0.51633901  0.65129996  0.06612289    -0.11400
C851        C  0.51279051  0.68216175  0.07652158     0.03300
C852        C  0.04630334  0.71797404  0.08450996    -0.10800
H853        H  0.10479856  0.67664992  0.08481804     0.08900
H854        H  0.49334339  0.62993168  0.05561477     0.06400
H855        H  0.04318720  0.74224898  0.09219003     0.06200
C856        C  0.29163583  0.88971497  0.10525944     0.03300
C857        C  0.30009288  0.85836560  0.10961658    -0.12900
C858        C  0.33457166  0.86315477  0.10091875     0.00800
C859        C  0.36204071  0.89947850  0.08809994    -0.11400
C860        C  0.35533022  0.93193814  0.08243381     0.03300
C861        C  0.31904873  0.92692223  0.09078113    -0.10800
H862        H  0.27909130  0.82915527  0.11949451     0.08900
H863        H  0.38796039  0.90077165  0.08086750     0.06400
H864        H  0.31295230  0.95147515  0.08687735     0.06200
C865        C  0.08723504  0.97418111  0.06756225     0.03300
C866        C  0.07737279  0.93563806  0.07990513    -0.12900
C867        C  0.10485025  0.93318619  0.09391922     0.00800
C868        C  0.13935276  0.96948931  0.09731664    -0.11400
C869        C  0.15045840  0.00675872  0.08388036     0.03300
C870        C  0.12449425  0.00838722  0.06836834    -0.10800
H871        H  0.04954649  0.90827093  0.07816471     0.08900
H872        H  0.15839918  0.96828315  0.11027213     0.06400
H873        H  0.13291485  0.03663540  0.05713390     0.06200
C874        C  0.36987596  0.67995820  0.08253705     0.80400
N875        N  0.33402486  0.64546879  0.08407447    -0.77900
C876        C  0.30304285  0.64691945  0.09323987     0.82800
N877        N  0.30836360  0.68292951  0.10079917    -0.77900
C878        C  0.34354194  0.71727708  0.09906601     0.82900
N879        N  0.37414411  0.71588943  0.08990174    -0.79600
C880        C  0.37705967  0.54411742  0.93644444     0.03300
C881        C  0.33997338  0.50987404  0.94062500    -0.12900
C882        C  0.30828590  0.51182141  0.93363279     0.00800
C883        C  0.31293513  0.54822698  0.92234734    -0.11400
C884        C  0.34977378  0.58287467  0.91675589     0.03300
C885        C  0.38241336  0.58104749  0.92403417    -0.10800
H886        H  0.33651595  0.98124961  0.95063330     0.08900
H887        H  0.28782634  0.54814780  0.91594589     0.06400
H888        H  0.41111515  0.60760010  0.92013705     0.06200
C889        C  0.17372498  0.59839558  0.90679750     0.03300
C890        C  0.13796030  0.56118550  0.91314748    -0.12900
C891        C  0.10448101  0.56340571  0.91886290     0.00800
C892        C  0.10723797  0.60214495  0.91677639    -0.11400
C893        C  0.14256181  0.63841262  0.91251408     0.03300
C894        C  0.17556346  0.63668473  0.90768576    -0.10800
H895        H  0.13637897  0.53147256  0.91406982     0.08900
H896        H  0.08244382  0.60489097  0.92163133     0.06400
H897        H  0.20259617  0.66564879  0.90366787     0.06200
C898        C  0.13519505  0.78230517  0.93423911     0.80400
N899        N  0.16807886  0.81820345  0.93742658    -0.77900
C900        C  0.16724606  0.85325346  0.94059127     0.82800
N901        N  0.13361270  0.85262373  0.94014965    -0.77900
C902        C  0.10062785  0.81686108  0.93700835     0.82900
N903        N  0.10135224  0.78165000  0.93380438    -0.79600
C904        C  0.40447489  0.80552983  0.90632283     0.03300
C905        C  0.43647712  0.80230543  0.91119950    -0.12900
C906        C  0.46518713  0.83084223  0.92470102     0.00800
C907        C  0.46229093  0.86320603  0.93374224    -0.11400
C908        C  0.42999020  0.86684986  0.92988218     0.03300
C909        C  0.40047024  0.83760619  0.91605647    -0.10800
H910        H  0.43990064  0.77812211  0.90360529     0.08900
H911        H  0.48505755  0.88522990  0.94427726     0.06400
H912        H  0.37539660  0.83997362  0.91279426     0.06200
Zr913      Zr  0.48736569  0.00684799  0.04983950     2.17500
O914        O  0.48120197  0.99078360  0.09387769    -0.51200
O915        O  0.51909641  0.57411439  0.06507287    -0.74400
O916        O  0.03581169  0.98684953  0.06241720    -0.81200
O917        O  0.37821622  0.97979132  0.04641459    -0.82900
O918        O  0.06832341  0.98248786  0.02911091    -0.78500
O919        O  0.42129897  0.97404226  0.06926625    -0.90200
O920        O  0.06366056  0.61964407  0.03630638    -0.76100
O921        O  0.04233486  0.54643438  0.02109261    -0.85600
O922        O  0.47444261  0.55301441  0.02803705    -0.85300
O923        O  0.48855194  0.95744877  0.02353548    -0.72100
O924        O  0.43043337  0.96653036  0.02892212    -0.84200
Zr925      Zr  0.47318412  0.50558656  0.95089863     2.26400
Zr926      Zr  0.04358234  0.49834288  0.99425880     2.06300
Zr927      Zr  0.41703597  0.01409889  0.00775586     2.10000
Zr928      Zr  0.02854943  0.59418169  0.00019560     1.78800
O929        O  0.34905172  0.97291425  0.00035504    -0.93000
O930        O  0.09571043  0.64241548  0.98685250    -0.40800
O931        O  0.47081731  0.55307965  0.97806133    -0.77500
O932        O  0.03230679  0.54854176  0.97348636    -0.96100
O933        O  0.48484103  0.95747107  0.97367515    -0.89400
O934        O  0.41919002  0.96695647  0.98022932    -0.92300
C935        C  0.04707181  0.61323126  0.05747120     1.01500
C936        C  0.38674863  0.96625288  0.06574474     1.14400
C937        C  0.06121471  0.98026485  0.05215932     1.05200
O938        O  0.11344555  0.54066825  0.99314395    -0.94400
O939        O  0.07567361  0.51596990  0.95339962    -0.90200
O940        O  0.03761311  0.52971467  0.92983810    -0.83300
C941        C  0.06974540  0.53133465  0.93381751     1.11800
O942        O  0.40579410  0.86645356  0.03681984    -0.96400
Zr943      Zr  0.43103698  0.91876879  0.00235189     1.88900
O944        O  0.45077060  0.93735217  0.93614713    -0.73100
O945        O  0.04452544  0.93604605  0.98466158    -0.52300
O946        O  0.45350440  0.86972364  0.00027884    -0.97000
O947        O  0.36127673  0.88381488  0.00893264    -0.54200
O948        O  0.40992957  0.88656075  0.96450318    -0.73600
C949        C  0.42792882  0.89881032  0.94347115     0.98800
O950        O  0.98194253  0.52787016  0.90893523    -0.62400
O951        O  0.41076862  0.56891228  0.02328814    -0.57200
O952        O  0.42469923  0.52417760  0.93898931    -0.93900
O953        O  0.40629656  0.54553325  0.97213896    -0.92300
O954        O  0.50325532  0.63868595  0.00731481    -0.92700
O955        O  0.04373368  0.64412106  0.96541964    -0.91500
C956        C  0.40648795  0.54001119  0.94938706     1.17600
H957        H  0.47021352  0.56960154  0.03909006     0.33500
H958        H  0.05441309  0.56858770  0.96319456     0.44400
H959        H  0.39579561  0.95292285  0.97183897     0.37900
H960        H  0.49162574  0.93691200  0.03279525     0.34400
H961        H  0.10294349  0.66778120  0.99534836     0.26200
H962        H  0.07223574  0.94546487  0.98243216     0.32100
H963        H  0.43229605  0.84479204  0.99371626     0.38000
H964        H  0.52622611  0.66529973  0.01064369     0.32500
H965        H  0.38730515  0.56608732  0.01644836     0.31400
H966        H  0.33926457  0.99219212  0.00165163     0.33100
H967        H  0.35163280  0.88156257  0.99245284     0.32000
H968        H  0.03170096  0.62697099  0.95164948     0.36000
H969        H  0.45381921  0.50998785  0.90142626     0.28800
H970        H  0.50733766  0.00813820  0.09951980     0.33000
H971        H  0.38844804  0.83973258  0.02995257     0.35800
H972        H  0.40353944  0.56075621  0.04091526     0.28500
H973        H  0.98543198  0.55601360  0.90812795     0.41300
H974        H  0.11892493  0.56953743  0.99325464     0.31400
H975        H  0.10998146  0.63048133  0.99465734     0.39000
H976        H  0.35642059  0.90440807  0.01628223     0.30800
H977        H  0.03563254  0.91824881  0.00015770     0.30900
H978        H  0.47574252  0.96189009  0.09612982     0.31200
C979        C  0.24679088  0.80573137  0.72801415     0.03300
C980        C  0.28446092  0.83628786  0.72034133    -0.12900
C981        C  0.31523830  0.83106594  0.72487264     0.00800
C982        C  0.30913590  0.79492786  0.73752776    -0.11400
C983        C  0.27230705  0.76486576  0.74749151     0.03300
C984        C  0.24045799  0.77010486  0.74260899    -0.10800
H985        H  0.29000704  0.86470759  0.71033434     0.08900
H986        H  0.33395426  0.79270250  0.74204442     0.06400
H987        H  0.21162718  0.74677328  0.74958887     0.06200
C988        C  0.21217735  0.54123219  0.76126917     0.03300
C989        C  0.21711182  0.50868424  0.75324136    -0.12900
C990        C  0.18922126  0.97634339  0.74038235     0.00800
C991        C  0.15760193  0.97988169  0.73425895    -0.11400
C992        C  0.15394070  0.51555768  0.73978186     0.03300
C993        C  0.18068207  0.54422418  0.75436308    -0.10800
H994        H  0.24166038  0.50644794  0.75828819     0.08900
H995        H  0.13609510  0.95782269  0.72333097     0.06400
H996        H  0.17651535  0.56863346  0.76077112     0.06200
C997        C  0.44671344  0.73533859  0.76208331     0.03300
C998        C  0.44308476  0.69671816  0.75827089    -0.12900
C999        C  0.47402819  0.69460301  0.74831041     0.00800
C1000       C  0.00807681  0.72986462  0.74355688    -0.11400
C1001       C  0.01266800  0.76902544  0.74574967     0.03300
C1002       C  0.48188248  0.77235792  0.75452610    -0.10800
H1003       H  0.41639817  0.66800734  0.76359178     0.08900
H1004       H  0.03143066  0.72704544  0.73551184     0.06400
H1005       H  0.48466092  0.80234419  0.75633006     0.06200
C1006       C  0.48343087  0.55455661  0.72024688     0.80400
N1007       N  0.01713034  0.55704095  0.71916533    -0.77900
C1008       C  0.01946975  0.52308392  0.71467664     0.82800
N1009       N  0.49115921  0.98819246  0.71213568    -0.77900
C1010       C  0.45693261  0.98595844  0.71071329     0.82900
N1011       N  0.45145142  0.51864777  0.71577361    -0.79600
Zr1012     Zr  0.31195633  0.67342353  0.78462255     2.17500
O1013       O  0.32650633  0.67053110  0.74161936    -0.51200
O1014       O  0.29082454  0.71696280  0.76244313    -0.74400
O1015       O  0.26539336  0.60641755  0.76936444    -0.81200
O1016       O  0.41955053  0.75581972  0.79382976    -0.82900
O1017       O  0.22503346  0.56248306  0.80092718    -0.78500
O1018       O  0.37979064  0.70551519  0.76996846    -0.90200
O1019       O  0.25696468  0.73453879  0.78783391    -0.76100
O1020       O  0.25500291  0.65525133  0.80883986    -0.85600
O1021       O  0.32684061  0.73519650  0.80378459    -0.85300
O1022       O  0.30113620  0.61623438  0.81294579    -0.72100
O1023       O  0.36285729  0.68750715  0.81057663    -0.84200
Zr1024     Zr  0.30773280  0.67347834  0.88240985     2.26400
Zr1025     Zr  0.24422737  0.59921756  0.83767952     2.06300
Zr1026     Zr  0.37783708  0.74887396  0.82963639     2.10000
Zr1027     Zr  0.26976195  0.71705821  0.82790995     1.78800
O1028       O  0.44486810  0.77998466  0.83916904    -0.93000
O1029       O  0.20087500  0.69004513  0.82615969    -0.40800
O1030       O  0.32070366  0.73122931  0.85407944    -0.77500
O1031       O  0.25658356  0.66102451  0.85627615    -0.96100
O1032       O  0.29574434  0.61315789  0.86309399    -0.89400
O1033       O  0.36599296  0.69294367  0.85886543    -0.92300
C1034       C  0.27143797  0.73503744  0.76674621     1.01500
C1035       C  0.41351230  0.73400066  0.77534861     1.14400
C1036       C  0.23677461  0.57137769  0.77829318     1.05200
O1037       O  0.17609623  0.56896636  0.83154143    -0.94400
O1038       O  0.20379363  0.58168436  0.87557938    -0.90200
O1039       O  0.24131457  0.63060994  0.90095783    -0.83300
C1040       C  0.20845199  0.60094324  0.89498827     1.11800
O1041       O  0.37626808  0.60502294  0.80762291    -0.96400
Zr1042     Zr  0.35328369  0.63270639  0.83885727     1.88900
O1043       O  0.32796741  0.62829480  0.90314217    -0.73100
O1044       O  0.23698293  0.53282280  0.85179960    -0.52300
O1045       O  0.32585463  0.55802700  0.84632011    -0.97000
O1046       O  0.42330648  0.66713134  0.83395062    -0.54200
O1047       O  0.37122806  0.62269605  0.87899593    -0.73600
C1048       C  0.35153182  0.61523169  0.89917456     0.98800
O1049       O  0.30325295  0.68977487  0.92432672    -0.62400
O1050       O  0.39151654  0.81660697  0.81252638    -0.57200
O1051       O  0.35156200  0.74047116  0.89818357    -0.93900
O1052       O  0.39098083  0.78545221  0.86660453    -0.92300
O1053       O  0.30196830  0.79245436  0.82582079    -0.92700
O1054       O  0.24361234  0.73809449  0.86120058    -0.91500
C1055       C  0.37915066  0.77611827  0.88924874     1.17600
H1056       H  0.33481812  0.75893037  0.79233176     0.33500
H1057       H  0.23386532  0.65815683  0.86439086     0.44400
H1058       H  0.38718318  0.70154232  0.86921457     0.37900
H1059       H  0.29756383  0.59279754  0.80441505     0.34400
H1060       H  0.19289949  0.67065554  0.81309002     0.26200
H1061       H  0.21278316  0.51854416  0.86236347     0.32100
H1062       H  0.31139112  0.55048286  0.86243965     0.38000
H1063       H  0.28413133  0.79909502  0.81762274     0.32500
H1064       H  0.40859206  0.83653871  0.82391315     0.31400
H1065       H  0.45651339  0.80999466  0.83443654     0.33100
H1066       H  0.43258452  0.68236764  0.84874808     0.32000
H1067       H  0.23540463  0.75644473  0.85342020     0.36000
H1068       H  0.28198114  0.69561390  0.92518216     0.28800
H1069       H  0.30292750  0.66414329  0.73338326     0.33000
H1070       H  0.38978542  0.59301500  0.81638054     0.35800
H1071       H  0.40831817  0.82253814  0.79754895     0.28500
H1072       H  0.29332974  0.66321851  0.93433128     0.41300
H1073       H  0.17429819  0.59143103  0.82261929     0.31400
H1074       H  0.18883077  0.67177870  0.84134574     0.39000
H1075       H  0.43096992  0.68914910  0.82061244     0.30800
H1076       H  0.23095249  0.51672538  0.83722250     0.30900
H1077       H  0.32846899  0.64536852  0.74075002     0.31200
C1078       C  0.04410254  0.64166422  0.57418198     0.03300
C1079       C  0.07769519  0.63985388  0.57640312    -0.12900
C1080       C  0.10986184  0.67176504  0.58622114     0.00800
C1081       C  0.10873519  0.70557784  0.59436637    -0.11400
C1082       C  0.07557646  0.70811033  0.59354280     0.03300
C1083       C  0.04272347  0.67598552  0.58317415    -0.10800
H1084       H  0.07956462  0.61437290  0.56941187     0.08900
H1085       H  0.13372718  0.72938473  0.60262003     0.06400
H1086       H  0.01694513  0.67776109  0.58197992     0.06200
C1087       C  0.03753574  0.88633764  0.60320624     0.03300
C1088       C  0.99970537  0.85264163  0.60533039    -0.12900
C1089       C  0.97012037  0.85614607  0.59581174     0.00800
C1090       C  0.97791991  0.89357702  0.58424156    -0.11400
C1091       C  0.01565235  0.92792129  0.58119314     0.03300
C1092       C  0.04614421  0.92420346  0.59043124    -0.10800
H1093       H  0.99304806  0.82345949  0.61484000     0.08900
H1094       H  0.45254234  0.89590769  0.57816750     0.06400
H1095       H  0.07537916  0.95030490  0.58844076     0.06200
C1096       C  0.32620601  0.96127668  0.56675124     0.03300
C1097       C  0.32345857  0.99636715  0.56980327    -0.12900
C1098       C  0.28974514  0.99250934  0.57966332     0.00800
C1099       C  0.25799588  0.95352453  0.58606542    -0.11400
C1100       C  0.26003283  0.91744602  0.58474976     0.03300
C1101       C  0.29475509  0.92120882  0.57496664    -0.10800
H1102       H  0.34674611  0.52430798  0.56482140     0.08900
H1103       H  0.23227161  0.95186199  0.59393151     0.06400
H1104       H  0.29703164  0.89388113  0.57345009     0.06200
C1105       C  0.25169434  0.67394689  0.59940324     0.80400
N1106       N  0.28590043  0.70978883  0.60040600    -0.77900
C1107       C  0.31912151  0.70911481  0.59972939     0.82800
N1108       N  0.31809406  0.67274593  0.59785893    -0.77900
C1109       C  0.28407484  0.63691334  0.59711354     0.82900
N1110       N  0.25101595  0.63771394  0.59778735    -0.79600
Zr1111     Zr  0.14613761  0.83867644  0.71619097     2.17500
O1112       O  0.14137597  0.81954283  0.75977324    -0.51200
O1113       O  0.16937947  0.90532307  0.73548471    -0.74400
O1114       O  0.19235702  0.81648209  0.72801707    -0.81200
O1115       O  0.04405112  0.82663452  0.71663231    -0.82900
O1116       O  0.22276872  0.81603313  0.69259880    -0.78500
O1117       O  0.07946287  0.80263338  0.73466044    -0.90200
O1118       O  0.21285570  0.95518638  0.70806846    -0.76100
O1119       O  0.19989379  0.88054854  0.68738156    -0.85600
O1120       O  0.13312042  0.88827234  0.69686429    -0.85300
O1121       O  0.14654525  0.79216832  0.68706643    -0.72100
O1122       O  0.08853665  0.80145389  0.69501560    -0.84200
Zr1123     Zr  0.13166429  0.84811985  0.61855288     2.26400
Zr1124     Zr  0.19955033  0.83507533  0.65758399     2.06300
Zr1125     Zr  0.07644183  0.85191596  0.67591377     2.10000
Zr1126     Zr  0.18693125  0.93101187  0.66922289     1.78800
O1127       O  0.00678067  0.81022473  0.67447461    -0.93000
O1128       O  0.25602015  0.97289727  0.65859944    -0.40800
O1129       O  0.13002275  0.89422034  0.64723635    -0.77500
O1130       O  0.18883201  0.88778624  0.64013411    -0.96100
O1131       O  0.14174840  0.79622312  0.63733609    -0.89400
O1132       O  0.07714935  0.80694661  0.64666519    -0.92300
C1133       C  0.19300994  0.94384718  0.72842465     1.01500
C1134       C  0.04808339  0.80363855  0.73284617     1.14400
C1135       C  0.21734912  0.81136031  0.71588421     1.05200
O1136       O  0.26923377  0.86714050  0.65637482    -0.94400
O1137       O  0.23512609  0.86552278  0.61765481    -0.90200
O1138       O  0.19358600  0.87421766  0.59470276    -0.83300
C1139       C  0.22740598  0.88028497  0.59847327     1.11800
O1140       O  0.06546736  0.70000500  0.69838895    -0.96400
Zr1141     Zr  0.08795439  0.75608950  0.66623048     1.88900
O1142       O  0.10352268  0.77946879  0.60126285    -0.73100
O1143       O  0.19659971  0.77341723  0.64289636    -0.52300
O1144       O  0.10416373  0.70383677  0.65669809    -0.97000
O1145       O  0.01919549  0.72333862  0.67712726    -0.54200
O1146       O  0.05858794  0.73031663  0.62848280    -0.73600
C1147       C  0.07693173  0.74155218  0.60760648     0.98800
O1148       O  0.12765772  0.86860286  0.57649193    -0.62400
O1149       O  0.07419561  0.91219672  0.68847010    -0.57200
O1150       O  0.08989302  0.87466283  0.60625429    -0.93900
O1151       O  0.05661484  0.87459502  0.64050889    -0.92300
O1152       O  0.16284379  0.97753673  0.67633141    -0.92700
O1153       O  0.21007016  0.98796093  0.63768168    -0.91500
C1154       C  0.06457180  0.88018796  0.61739858     1.17600
H1155       H  0.12717410  0.90331388  0.70801701     0.33500
H1156       H  0.21048452  0.90948255  0.63035880     0.44400
H1157       H  0.05359841  0.79456129  0.63835795     0.37900
H1158       H  0.14989904  0.77093277  0.69519249     0.34400
H1159       H  0.26708811  0.99015623  0.67246408     0.26200
H1160       H  0.22193284  0.78383853  0.63403135     0.32100
H1161       H  0.12462723  0.70811751  0.66760686     0.38000
H1162       H  0.18515403  0.00299689  0.68161814     0.32500
H1163       H  0.04966138  0.90824366  0.68281951     0.31400
H1164       H  0.49897912  0.83288029  0.67447533     0.33100
H1165       H  0.00784313  0.72723804  0.66230006     0.32000
H1166       H  0.19667168  0.97468557  0.62310463     0.36000
H1167       H  0.15021736  0.89693037  0.57294042     0.28800
H1168       H  0.16744000  0.83735309  0.76540644     0.33000
H1169       H  0.04581474  0.67470035  0.69120105     0.35800
H1170       H  0.06991005  0.90809860  0.70646922     0.28500
H1171       H  0.13312755  0.85080451  0.56644165     0.41300
H1172       H  0.27808099  0.89255972  0.66511484     0.31400
H1173       H  0.26515176  0.95293530  0.65955153     0.39000
H1174       H  0.01684481  0.74134903  0.68874605     0.30800
H1175       H  0.19718300  0.75777353  0.65774926     0.30900
H1176       H  0.13700709  0.79102809  0.76110875     0.31200
C1177       C  0.40188004  0.86821876  0.42804486     0.03300
C1178       C  0.40260214  0.83246542  0.42119231    -0.12900
C1179       C  0.36824873  0.79727972  0.41448968     0.00800
C1180       C  0.33420179  0.79815800  0.41573981    -0.11400
C1181       C  0.33410541  0.83407850  0.42044364     0.03300
C1182       C  0.36772227  0.86893376  0.42653936    -0.10800
H1183       H  0.42917682  0.83208339  0.42103855     0.08900
H1184       H  0.30779967  0.77196743  0.41057305     0.06400
H1185       H  0.36670626  0.89616563  0.43104440     0.06200
C1186       C  0.40792725  0.62828321  0.39639976     0.03300
C1187       C  0.44631860  0.66009884  0.39188755    -0.12900
C1188       C  0.47592615  0.65549445  0.40023001     0.00800
C1189       C  0.46795431  0.61914480  0.41310955    -0.11400
C1190       C  0.42999241  0.58704251  0.41916521     0.03300
C1191       C  0.39922359  0.59165110  0.41096230    -0.10800
H1192       H  0.45338283  0.68889301  0.38168268     0.08900
H1193       H  0.49196327  0.61742452  0.41999966     0.06400
H1194       H  0.36965103  0.56709967  0.41512489     0.06200
C1195       C  0.11114803  0.53880623  0.43118313     0.03300
C1196       C  0.11423707  0.50403963  0.42727241    -0.12900
C1197       C  0.14767703  0.50882819  0.41605512     0.00800
C1198       C  0.17845332  0.54800885  0.40895319    -0.11400
C1199       C  0.17623491  0.58358148  0.41163924     0.03300
C1200       C  0.14194994  0.57915215  0.42268968    -0.10800
H1201       H  0.09082887  0.47314174  0.43339212     0.08900
H1202       H  0.20385530  0.55037926  0.39993621     0.06400
H1203       H  0.13967539  0.60626712  0.42521259     0.06200
C1204       C  0.19502559  0.83157730  0.39865451     0.80400
N1205       N  0.19681373  0.86861720  0.39784121    -0.77900
C1206       C  0.16483373  0.87060587  0.39486152     0.82800
N1207       N  0.13092091  0.83546410  0.39297072    -0.77900
C1208       C  0.12845179  0.79813955  0.39441881     0.82900
N1209       N  0.16063048  0.79609939  0.39734791    -0.79600
Zr1210     Zr  0.48193675  0.50657506  0.45183311     2.17500
O1211       O  0.99313078  0.52248863  0.40663901    -0.51200
O1212       O  0.44376487  0.94022625  0.43382217    -0.74400
O1213       O  0.04696844  0.52545932  0.43659437    -0.81200
O1214       O  0.40302861  0.53990759  0.45508108    -0.82900
O1215       O  0.07921751  0.52564383  0.46981269    -0.78500
O1216       O  0.45319509  0.54387426  0.43260600    -0.90200
O1217       O  0.43945380  0.89210323  0.46172614    -0.76100
O1218       O  0.49216048  0.96302490  0.47926672    -0.85600
O1219       O  0.42024629  0.96289021  0.47169905    -0.85300
O1220       O  0.02723676  0.55084745  0.47784268    -0.72100
O1221       O  0.46418053  0.54906686  0.47325855    -0.84200
Zr1222     Zr  0.45922849  0.00373701  0.54875909     2.26400
Zr1223     Zr  0.03595833  0.50587883  0.50627093     2.06300
Zr1224     Zr  0.40276044  0.50408809  0.49385036     2.10000
Zr1225     Zr  0.42960275  0.91808706  0.49893282     1.78800
O1226       O  0.38075470  0.55146125  0.50391455    -0.93000
O1227       O  0.44790550  0.86793198  0.51195811    -0.40800
O1228       O  0.41279245  0.96061322  0.52111407    -0.77500
O1229       O  0.47481266  0.95955484  0.52648288    -0.96100
O1230       O  0.01918412  0.54965464  0.52717601    -0.89400
O1231       O  0.44781439  0.54705060  0.52217300    -0.92300
C1232       C  0.43233796  0.90221435  0.44099579     1.01500
C1233       C  0.42656708  0.55287250  0.43598768     1.14400
C1234       C  0.07726665  0.53079359  0.44675029     1.05200
O1235       O  0.06339197  0.95917109  0.50272694    -0.94400
O1236       O  0.04165581  0.97494895  0.54579225    -0.90200
O1237       O  0.99369169  0.97284026  0.56987060    -0.83300
C1238       C  0.01987127  0.96352702  0.56562493     1.11800
O1239       O  0.03570050  0.64213121  0.46342689    -0.96400
Zr1240     Zr  0.00794047  0.59241041  0.49912406     1.88900
O1241       O  0.49971372  0.57079276  0.56647718    -0.73100
O1242       O  0.09582965  0.56241277  0.51943704    -0.52300
O1243       O  0.07701857  0.63876227  0.50110104    -0.97000
O1244       O  0.97745868  0.63341458  0.49194595    -0.54200
O1245       O  0.01490900  0.62503358  0.53692190    -0.73600
C1246       C  0.01563284  0.61098679  0.55840054     0.98800
O1247       O  0.43475344  0.98495169  0.59142062    -0.62400
O1248       O  0.34365093  0.95710285  0.47665959    -0.57200
O1249       O  0.39198932  0.98016507  0.56216213    -0.93900
O1250       O  0.35714823  0.47032157  0.52889521    -0.92300
O1251       O  0.36374925  0.87451099  0.48769511    -0.92700
O1252       O  0.38892090  0.86729406  0.53214083    -0.91500
C1253       C  0.35969243  0.46721388  0.55199254     1.17600
H1254       H  0.40061871  0.94792772  0.46062824     0.33500
H1255       H  0.47372600  0.93691951  0.53615700     0.44400
H1256       H  0.43829218  0.56178149  0.53121119     0.37900
H1257       H  0.05109864  0.57102689  0.46899229     0.34400
H1258       H  0.43392670  0.84436384  0.50174576     0.26200
H1259       H  0.09029685  0.56383872  0.53691536     0.32100
H1260       H  0.08295698  0.63113404  0.51716946     0.38000
H1261       H  0.36246067  0.84893603  0.48257392     0.32500
H1262       H  0.32513778  0.96541213  0.48210270     0.31400
H1263       H  0.35317372  0.53672000  0.50062679     0.33100
H1264       H  0.96346454  0.63098289  0.50762479     0.32000
H1265       H  0.40182211  0.87925867  0.54711140     0.36000
H1266       H  0.42810824  0.95577870  0.59474936     0.28800
H1267       H  0.00236943  0.50448504  0.40053552     0.33000
H1268       H  0.04774317  0.66993156  0.46981521     0.35800
H1269       H  0.34797016  0.96447456  0.45883957     0.28500
H1270       H  0.45735391  0.00133963  0.60092298     0.41300
H1271       H  0.04394865  0.93560039  0.49420728     0.31400
H1272       H  0.47523117  0.88094865  0.50595986     0.39000
H1273       H  0.45568557  0.61630970  0.48369907     0.30800
H1274       H  0.11351750  0.55146224  0.51946439     0.30900
H1275       H  0.01576848  0.55100496  0.40446583     0.31200
C1276       C  0.21141524  0.97820161  0.24241840     0.03300
C1277       C  0.21076594  0.51530802  0.24967255    -0.12900
C1278       C  0.24529388  0.54973977  0.25677590     0.00800
C1279       C  0.27940265  0.54890880  0.25468489    -0.11400
C1280       C  0.27933831  0.51372048  0.24781889     0.03300
C1281       C  0.24606413  0.97815969  0.24217525    -0.10800
H1282       H  0.18418653  0.51569944  0.25071986     0.08900
H1283       H  0.30584087  0.57446038  0.26053054     0.06400
H1284       H  0.24727145  0.95179257  0.23605920     0.06200
C1285       C  0.20442424  0.72326123  0.27425010     0.03300
C1286       C  0.16627535  0.69005147  0.27633301    -0.12900
C1287       C  0.13696163  0.69443578  0.26702474     0.00800
C1288       C  0.14522167  0.73233714  0.25602915    -0.11400
C1289       C  0.18313352  0.76622736  0.25283556     0.03300
C1290       C  0.21342094  0.76157141  0.26170981    -0.10800
H1291       H  0.15929287  0.66029886  0.28516558     0.08900
H1292       H  0.12180448  0.73430142  0.24833203     0.06400
H1293       H  0.24285508  0.78721269  0.25948930     0.06200
C1294       C  0.99406995  0.80009283  0.23343248     0.03300
C1295       C  0.99132388  0.83559861  0.23434377    -0.12900
C1296       C  0.46152508  0.83111076  0.25058745     0.00800
C1297       C  0.42959046  0.79246109  0.25730944    -0.11400
C1298       C  0.43049163  0.75589915  0.25509745     0.03300
C1299       C  0.46452413  0.75891415  0.24454580    -0.10800
H1300       H  0.01492994  0.86548109  0.22679377     0.08900
H1301       H  0.40428666  0.79133849  0.26552734     0.06400
H1302       H  0.46587107  0.73116559  0.24237352     0.06200
C1303       C  0.42113480  0.51474226  0.25731979     0.80400
N1304       N  0.45503404  0.55073458  0.25886511    -0.77900
C1305       C  0.98655403  0.55020597  0.26190973     0.82800
N1306       N  0.98592349  0.51392735  0.26066460    -0.77900
C1307       C  0.45319700  0.97747810  0.26270685     0.82900
N1308       N  0.42042905  0.97821840  0.26028857    -0.79600
Zr1309     Zr  0.15750594  0.84962431  0.12056894     2.17500
O1310       O  0.17454721  0.86307536  0.07676720    -0.51200
O1311       O  0.12200339  0.78353862  0.10041097    -0.74400
O1312       O  0.22636980  0.87673832  0.10762643    -0.81200
O1313       O  0.07371773  0.87604609  0.12358426    -0.82900
O1314       O  0.25426627  0.87223585  0.14201520    -0.78500
O1315       O  0.12969920  0.89009030  0.10352170    -0.90200
O1316       O  0.10050081  0.72788241  0.12785223    -0.76100
O1317       O  0.16685497  0.80469672  0.14808151    -0.85600
O1318       O  0.09478575  0.80133255  0.13924741    -0.85300
O1319       O  0.20051015  0.89355345  0.14996220    -0.72100
O1320       O  0.13618207  0.88825886  0.14290921    -0.84200
Zr1321     Zr  0.12728562  0.83900090  0.21824262     2.26400
Zr1322     Zr  0.20898979  0.84754877  0.17773434     2.06300
Zr1323     Zr  0.07396725  0.84015793  0.16175395     2.10000
Zr1324     Zr  0.10410715  0.75663326  0.16656239     1.78800
O1325       O  0.04905978  0.88583265  0.16947646    -0.93000
O1326       O  0.13045268  0.71103476  0.17088788    -0.40800
O1327       O  0.08310360  0.79516173  0.18950071    -0.77500
O1328       O  0.14602575  0.79775988  0.19555793    -0.96100
O1329       O  0.18875965  0.88802379  0.19912288    -0.89400
O1330       O  0.11595950  0.88304990  0.19138625    -0.92300
C1331       C  0.10439905  0.74397822  0.10619965     1.01500
C1332       C  0.10057694  0.89532603  0.10655871     1.14400
C1333       C  0.25547960  0.88089627  0.11893352     1.05200
O1334       O  0.23831962  0.80522080  0.17340468    -0.94400
O1335       O  0.21002007  0.81460364  0.21762288    -0.90200
O1336       O  0.16040850  0.81025413  0.24113063    -0.83300
C1337       C  0.18737086  0.80199812  0.23721877     1.11800
O1338       O  0.21544200  0.98965932  0.14168373    -0.96400
Zr1339     Zr  0.17744268  0.93151214  0.17179767     1.88900
O1340       O  0.16887872  0.90658766  0.23566448    -0.73100
O1341       O  0.26756346  0.90198601  0.19351026    -0.52300
O1342       O  0.24327130  0.97830325  0.18199416    -0.97000
O1343       O  0.14626107  0.97077770  0.16119960    -0.54200
O1344       O  0.17087731  0.95618099  0.21013439    -0.73600
C1345       C  0.17989267  0.94492364  0.22971642     0.98800
O1346       O  0.10758625  0.81589076  0.26132537    -0.62400
O1347       O  0.01527477  0.79053678  0.14368847    -0.57200
O1348       O  0.05959340  0.81735268  0.22991037    -0.93900
O1349       O  0.02645116  0.80820487  0.19587798    -0.92300
O1350       O  0.03507928  0.71326447  0.16316525    -0.92700
O1351       O  0.07425638  0.70304874  0.20024117    -0.91500
C1352       C  0.02842012  0.80661152  0.21906814     1.17600
H1353       H  0.07583581  0.78645518  0.12776693     0.33500
H1354       H  0.14503423  0.77521632  0.20526281     0.44400
H1355       H  0.10469821  0.89642137  0.20013792     0.37900
H1356       H  0.22463347  0.91524040  0.14211683     0.34400
H1357       H  0.14766689  0.71780385  0.15601009     0.26200
H1358       H  0.26241746  0.89811629  0.21145734     0.32100
H1359       H  0.25713056  0.96350576  0.17858563     0.38000
H1360       H  0.03138430  0.68691007  0.15752844     0.32500
H1361       H  0.00359786  0.76530093  0.15510910     0.31400
H1362       H  0.02488131  0.87422933  0.16103617     0.33100
H1363       H  0.14038368  0.97907522  0.17681064     0.32000
H1364       H  0.07074070  0.71716543  0.21396385     0.36000
H1365       H  0.09718037  0.83280974  0.26751531     0.28800
H1366       H  0.15000076  0.85429966  0.06913744     0.33000
H1367       H  0.22034095  0.01479727  0.14970034     0.35800
H1368       H  0.99783452  0.80164266  0.14549876     0.28500
H1369       H  0.08525643  0.78722698  0.26174942     0.41300
H1370       H  0.21670294  0.77733307  0.17056152     0.31400
H1371       H  0.14810438  0.72160241  0.18419547     0.39000
H1372       H  0.12083143  0.94997261  0.15591037     0.30800
H1373       H  0.28685236  0.89364920  0.19043850     0.30900
H1374       H  0.18930332  0.89359476  0.07366924     0.31200
Zr1375     Zr  0.30953830  0.66214284  0.38424349     2.17500
O1376       O  0.30408250  0.63152599  0.42545031    -0.51200
O1377       O  0.33852473  0.72577401  0.40659141    -0.74400
O1378       O  0.35308501  0.63694179  0.39529841    -0.81200
O1379       O  0.20299662  0.64191672  0.38245577    -0.82900
O1380       O  0.38836168  0.64448598  0.36024075    -0.78500
O1381       O  0.24288500  0.62653991  0.40261356    -0.90200
O1382       O  0.38502461  0.77354143  0.38002808    -0.76100
O1383       O  0.36453702  0.70725229  0.35726651    -0.85600
O1384       O  0.29810535  0.71550527  0.36872513    -0.85300
O1385       O  0.31202750  0.62049434  0.35266329    -0.72100
O1386       O  0.25349993  0.62939882  0.36145380    -0.84200
Zr1387     Zr  0.30046480  0.68593535  0.28729364     2.26400
Zr1388     Zr  0.36660045  0.66684637  0.32531522     2.06300
Zr1389     Zr  0.24271255  0.68275736  0.34564149     2.10000
Zr1390     Zr  0.35316146  0.76043456  0.34214187     1.78800
O1391       O  0.17330000  0.65018630  0.34403020    -0.93000
O1392       O  0.42164364  0.80663468  0.33142660    -0.40800
O1393       O  0.29751042  0.72806219  0.31844169    -0.77500
O1394       O  0.35643779  0.72153334  0.31061298    -0.96100
O1395       O  0.30988494  0.63190009  0.30336770    -0.89400
O1396       O  0.24478626  0.64177137  0.31403197    -0.92300
C1397       C  0.36619627  0.76324741  0.40068507     1.01500
C1398       C  0.20942727  0.62198670  0.39949413     1.14400
C1399       C  0.38014331  0.63535523  0.38331841     1.05200
O1400       O  0.43629926  0.70350646  0.32649906    -0.94400
O1401       O  0.40346171  0.70047766  0.28615362    -0.90200
O1402       O  0.36370652  0.71440229  0.26459168    -0.83300
C1403       C  0.39691722  0.71842942  0.26796838     1.11800
O1404       O  0.23611207  0.52980553  0.36053719    -0.96400
Zr1405     Zr  0.25470276  0.58814509  0.33056680     1.88900
O1406       O  0.27453909  0.62016280  0.26704467    -0.73100
O1407       O  0.36618486  0.60760507  0.30880772    -0.52300
O1408       O  0.26992768  0.53675070  0.31737747    -0.97000
O1409       O  0.18570205  0.55071901  0.34160195    -0.54200
O1410       O  0.22647337  0.56974231  0.29187806    -0.73600
C1411       C  0.24690723  0.58223789  0.27179391     0.98800
O1412       O  0.30047538  0.71227315  0.24582215    -0.62400
O1413       O  0.24371457  0.74158653  0.36339907    -0.57200
O1414       O  0.25739385  0.71166585  0.27597326    -0.93900
O1415       O  0.22350962  0.70811033  0.31082675    -0.92300
O1416       O  0.33355455  0.80666771  0.35812060    -0.92700
O1417       O  0.37338171  0.81965939  0.31265787    -0.91500
C1418       C  0.23159651  0.71579098  0.28772971     1.17600
H1419       H  0.29330883  0.72943516  0.38135173     0.33500
H1420       H  0.37864758  0.74406901  0.30168687     0.44400
H1421       H  0.22164128  0.63078861  0.30533817     0.37900
H1422       H  0.31499897  0.59824730  0.35963655     0.34400
H1423       H  0.43041207  0.82815046  0.34328715     0.26200
H1424       H  0.36733754  0.61273507  0.29087977     0.32100
H1425       H  0.29379436  0.55249387  0.30663570     0.38000
H1426       H  0.35771060  0.83043435  0.36306431     0.32500
H1427       H  0.23378448  0.75293787  0.35088998     0.31400
H1428       H  0.16587624  0.62672876  0.33371096     0.33100
H1429       H  0.17453835  0.55967564  0.32861864     0.32000
H1430       H  0.35736761  0.80789952  0.29870957     0.36000
H1431       H  0.32297889  0.74089294  0.24384683     0.28800
H1432       H  0.29205922  0.64318233  0.43588332     0.33000
H1433       H  0.21540385  0.50506031  0.35349610     0.35800
H1434       H  0.22308024  0.72894732  0.37672615     0.28500
H1435       H  0.30720242  0.69621998  0.23504189     0.41300
H1436       H  0.44266772  0.72776184  0.33589576     0.31400
H1437       H  0.43355496  0.79008125  0.33603127     0.39000
H1438       H  0.18267067  0.56337572  0.35622084     0.30800
H1439       H  0.39169538  0.61152256  0.31206585     0.30900
H1440       H  0.28429662  0.60175571  0.42520575     0.31200
C1441       C  0.45923172  0.86842821  0.25390737    -0.05200
C1442       C  0.96959584  0.89283434  0.26827784    -0.02300
C1443       C  0.96885299  0.92952836  0.27049449     0.02700
C1444       C  0.45335707  0.93875219  0.26039467    -0.05200
C1445       C  0.44035932  0.91724859  0.23915491    -0.02300
C1446       C  0.44259930  0.88159155  0.23619289     0.02700
C1447       C  0.98346792  0.87733545  0.28769657     0.37300
C1448       C  0.42670976  0.93298559  0.21969552     0.37300
C1449       C  0.42867373  0.85884178  0.21465859     0.35700
C1450       C  0.98135367  0.95151736  0.29242543     0.35700
N1451       N  0.41767130  0.84039042  0.19759781    -0.39100
N1452       N  0.99139374  0.96913555  0.30986435    -0.39100
N1453       N  0.41615093  0.94563647  0.20404518    -0.38500
N1454       N  0.99475447  0.86515809  0.30313947    -0.38500
C1455       C  0.02397596  0.58888768  0.26258315    -0.05200
C1456       C  0.03017033  0.61729402  0.28027070    -0.02300
C1457       C  0.06708335  0.65250274  0.28147684     0.02700
C1458       C  0.09805561  0.65796355  0.26593817    -0.05200
C1459       C  0.09155328  0.63021867  0.24786499    -0.02300
C1460       C  0.05438890  0.59658105  0.24568145     0.02700
C1461       C  0.99896790  0.60990593  0.29748971     0.37300
C1462       C  0.12292900  0.63693154  0.23098926     0.37300
C1463       C  0.04707878  0.57116668  0.22519368     0.35700
C1464       C  0.07319042  0.68349248  0.29831363     0.35700
N1465       N  0.04110204  0.55123827  0.20870981    -0.39100
N1466       N  0.07813203  0.70872988  0.31137486    -0.39100
N1467       N  0.14779755  0.64202730  0.21750332    -0.38500
N1468       N  0.97402922  0.60390866  0.31122068    -0.38500
C1469       C  0.38501058  0.51484061  0.25474081    -0.05200
C1470       C  0.38170619  0.53838923  0.23513085    -0.02300
C1471       C  0.34660203  0.53698712  0.23236892     0.02700
C1472       C  0.31488843  0.51210745  0.24917029    -0.05200
C1473       C  0.31866072  0.98891753  0.27069182    -0.02300
C1474       C  0.35373539  0.99083253  0.27399722     0.02700
C1475       C  0.41398658  0.56305890  0.21743104     0.37300
C1476       C  0.28615674  0.96452595  0.28829259     0.37300
C1477       C  0.35764364  0.96909181  0.29529090     0.35700
C1478       C  0.34266550  0.56049266  0.21206760     0.35700
N1479       N  0.36097127  0.95190860  0.31223663    -0.39100
N1480       N  0.33904096  0.57895147  0.19593503    -0.39100
N1481       N  0.26011176  0.94505567  0.30223793    -0.38500
N1482       N  0.43979296  0.58264375  0.20332944    -0.38500
C1483       C  0.15091799  0.47287031  0.41050105    -0.05200
C1484       C  0.13857582  0.95308519  0.38883229    -0.02300
C1485       C  0.14582775  0.92181534  0.38262717     0.02700
C1486       C  0.16463520  0.90875614  0.39876864    -0.05200
C1487       C  0.17778634  0.92832534  0.42062784    -0.02300
C1488       C  0.17102924  0.46035892  0.42572295     0.02700
C1489       C  0.11709774  0.96492010  0.37310775     0.37300
C1490       C  0.19593714  0.91432767  0.43791212     0.37300
C1491       C  0.18419049  0.47936420  0.44847777     0.35700
C1492       C  0.13462706  0.90360766  0.35946436     0.35700
N1493       N  0.19461155  0.49410708  0.46672748    -0.39100
N1494       N  0.12600223  0.88934324  0.34091033    -0.39100
N1495       N  0.21043427  0.90348374  0.45184956    -0.38500
N1496       N  0.09960829  0.97399410  0.36067328    -0.38500
C1497       C  0.08998109  0.76036957  0.39664666    -0.05200
C1498       C  0.08212348  0.72574430  0.38358609    -0.02300
C1499       C  0.54317231  0.69299524  0.38130407     0.02700
C1500       C  0.51544533  0.69095495  0.39842587    -0.05200
C1501       C  0.02310469  0.72492926  0.41299822    -0.02300
C1502       C  0.06052130  0.75927837  0.41195475     0.02700
C1503       C  0.11233442  0.72601454  0.36846311     0.37300
C1504       C  0.49767214  0.71729599  0.43401902     0.37300
C1505       C  0.06873624  0.79263093  0.42752119     0.35700
C1506       C  0.53224904  0.66073894  0.36457453     0.35700
N1507       N  0.07520395  0.81914089  0.43992803    -0.39100
N1508       N  0.52335113  0.63495551  0.35124310    -0.39100
N1509       N  0.47519864  0.71367355  0.44902923    -0.38500
N1510       N  0.13649630  0.72616713  0.35649777    -0.38500
C1511       C  0.23001038  0.83052359  0.40365169    -0.05200
C1512       C  0.22950780  0.80418684  0.42312348    -0.02300
C1513       C  0.26406520  0.80714243  0.42959263     0.02700
C1514       C  0.29900971  0.83558547  0.41623635    -0.05200
C1515       C  0.29938471  0.86137874  0.39652113    -0.02300
C1516       C  0.26500274  0.85897653  0.39032036     0.02700
C1517       C  0.19368272  0.77421377  0.43670939     0.37300
C1518       C  0.33481334  0.88906789  0.38182505     0.37300
C1519       C  0.26550289  0.88473085  0.36952881     0.35700
C1520       C  0.26365071  0.78072234  0.44995886     0.35700
N1521       N  0.26593336  0.90525246  0.35296256    -0.39100
N1522       N  0.26317419  0.75944938  0.46611148    -0.39100
N1523       N  0.36297305  0.91102370  0.37002779    -0.38500
N1524       N  0.16517107  0.74988468  0.44741608    -0.38500
C1525       C  0.28645457  0.52654677  0.58446256    -0.05200
C1526       C  0.30823292  0.55186642  0.60267532    -0.02300
C1527       C  0.30676465  0.58751679  0.60723865     0.02700
C1528       C  0.28347164  0.59790561  0.59354839    -0.05200
C1529       C  0.26059050  0.57151695  0.57588643    -0.02300
C1530       C  0.26190160  0.53571928  0.57152799     0.02700
C1531       C  0.33111124  0.54031687  0.61725619     0.37300
C1532       C  0.23649550  0.58149490  0.56152593     0.37300
C1533       C  0.23809265  0.50841204  0.55361110     0.35700
C1534       C  0.32827643  0.61263566  0.62658525     0.35700
N1535       N  0.21876892  0.48648920  0.53952524    -0.39100
N1536       N  0.34539770  0.63261270  0.64202917    -0.39100
N1537       N  0.21703929  0.58901520  0.55005312    -0.38500
N1538       N  0.34909887  0.53067687  0.62879455    -0.38500
C1539       C  0.43026949  0.81961613  0.59663630    -0.05200
C1540       C  0.40397772  0.81006560  0.61683116    -0.02300
C1541       C  0.36709318  0.77423116  0.61772994     0.02700
C1542       C  0.35663535  0.74804405  0.59838343    -0.05200
C1543       C  0.38282557  0.75811851  0.57796707    -0.02300
C1544       C  0.41964013  0.79378154  0.57716136     0.02700
C1545       C  0.41543570  0.83661645  0.63688480     0.37300
C1546       C  0.37177872  0.73195876  0.55766238     0.37300
C1547       C  0.44693988  0.80355491  0.55651168     0.35700
C1548       C  0.34059630  0.76327178  0.63898198     0.35700
N1549       N  0.96606236  0.80877527  0.53986071    -0.39100
N1550       N  0.31941834  0.75428175  0.65594785    -0.39100
N1551       N  0.36285730  0.71095042  0.54155667    -0.38500
N1552       N  0.42502968  0.85789375  0.65284809    -0.38500
C1553       C  0.21571628  0.67446203  0.59676147    -0.05200
C1554       C  0.21462282  0.70227135  0.57894108    -0.02300
C1555       C  0.17963822  0.70036154  0.57492932     0.02700
C1556       C  0.14552403  0.67046478  0.58851622    -0.05200
C1557       C  0.14639411  0.64216683  0.60596558    -0.02300
C1558       C  0.18147768  0.64445859  0.61029030     0.02700
C1559       C  0.24912427  0.73182684  0.56400041     0.37300
C1560       C  0.11129558  0.61097061  0.61972176     0.37300
C1561       C  0.18240137  0.61662575  0.62919473     0.35700
C1562       C  0.17854898  0.72857158  0.55635740     0.35700
N1563       N  0.18298544  0.59439621  0.64430278    -0.39100
N1564       N  0.17776716  0.75103889  0.54150442    -0.39100
N1565       N  0.08338781  0.58574646  0.63060287    -0.38500
N1566       N  0.27675516  0.75527538  0.55217451    -0.38500
C1567       C  0.47927467  0.58924197  0.72797371    -0.05200
C1568       C  0.99058065  0.60470157  0.74965175    -0.02300
C1569       C  0.98570381  0.63669811  0.75788993     0.02700
C1570       C  0.47060016  0.65478565  0.74301886    -0.05200
C1571       C  0.45687083  0.63793249  0.72065404    -0.02300
C1572       C  0.46097262  0.60497776  0.71319851     0.02700
C1573       C  0.00763312  0.58678504  0.76512139     0.37300
C1574       C  0.44022011  0.65585004  0.70482170     0.37300
C1575       C  0.44784370  0.58841125  0.68986466     0.35700
C1576       C  0.99861460  0.65241058  0.78142639     0.35700
N1577       N  0.43742772  0.57494210  0.67130979    -0.39100
N1578       N  0.00895047  0.66501170  0.80017096    -0.39100
N1579       N  0.42720456  0.67035336  0.69212956    -0.38500
N1580       N  0.02141071  0.57253912  0.77731739    -0.38500
C1581       C  0.05425029  0.52135638  0.72047515    -0.05200
C1582       C  0.09152845  0.55429233  0.71240872    -0.02300
C1583       C  0.12420023  0.55219295  0.71837480     0.02700
C1584       C  0.11987510  0.51801806  0.73316738    -0.05200
C1585       C  0.08280575  0.98390385  0.74304682    -0.02300
C1586       C  0.05063405  0.98624603  0.73677188     0.02700
C1587       C  0.09640431  0.58996837  0.69760162     0.37300
C1588       C  0.07767907  0.94941311  0.75928354     0.37300
C1589       C  0.01292024  0.95377366  0.74699994     0.35700
C1590       C  0.16228393  0.58455519  0.70877891     0.35700
N1591       N  0.48702592  0.93041933  0.75902974    -0.39100
N1592       N  0.19283628  0.61004615  0.70119378    -0.39100
N1593       N  0.07351428  0.92189099  0.77217324    -0.38500
N1594       N  0.10045506  0.61861696  0.68592521    -0.38500
C1595       C  0.35409900  0.86767444  0.72080344    -0.05200
C1596       C  0.37075486  0.88400554  0.69690412    -0.02300
C1597       C  0.40536257  0.92253235  0.69334538     0.02700
C1598       C  0.42212802  0.94500759  0.71359464    -0.05200
C1599       C  0.40543181  0.92870869  0.73742305    -0.02300
C1600       C  0.37163066  0.88999982  0.74103368     0.02700
C1601       C  0.35141640  0.86217207  0.67606136     0.37300
C1602       C  0.42247358  0.95232080  0.75830767     0.37300
C1603       C  0.35340411  0.87468463  0.76549590     0.35700
C1604       C  0.42313178  0.93967394  0.66900422     0.35700
N1605       N  0.33893967  0.86293801  0.78501665    -0.39100
N1606       N  0.43751471  0.95338919  0.64961886    -0.39100
N1607       N  0.43592151  0.97097522  0.77498926    -0.38500
N1608       N  0.33590623  0.84515216  0.65933791    -0.37300
C1609       C  0.06536531  0.81811667  0.93388189    -0.05200
C1610       C  0.03374958  0.79673678  0.95119126    -0.02300
C1611       C  0.50229924  0.80438710  0.94692701     0.02700
C1612       C  0.50007824  0.82840889  0.92719203    -0.05200
C1613       C  0.03170737  0.84654292  0.91173808    -0.02300
C1614       C  0.06426667  0.84278630  0.91404985     0.02700
C1615       C  0.03542991  0.77198827  0.97170989     0.37300
C1616       C  0.03057774  0.87224205  0.89153615     0.37300
C1617       C  0.09645494  0.86378560  0.89582986     0.35700
C1618       C  0.47160229  0.78501931  0.96614466     0.35700
N1619       N  0.12222201  0.88041129  0.88139102    -0.39100
N1620       N  0.44716928  0.76966498  0.98151707    -0.39100
N1621       N  0.02948105  0.89278724  0.87554992    -0.38500
N1622       N  0.03707537  0.75234978  0.98800974    -0.38500
C1623       C  0.13746640  0.74572104  0.92846233    -0.05200
C1624       C  0.12465810  0.72766893  0.90618395    -0.02300
C1625       C  0.12803690  0.69358861  0.90033601     0.02700
C1626       C  0.14476761  0.67801544  0.91650218    -0.05200
C1627       C  0.15890986  0.69695232  0.93829155    -0.02300
C1628       C  0.15506441  0.73063196  0.94435279     0.02700
C1629       C  0.10937242  0.74497824  0.88879326     0.37300
C1630       C  0.17601355  0.68062195  0.95492880     0.37300
C1631       C  0.16811987  0.74876894  0.96733282     0.35700
C1632       C  0.11440867  0.67446277  0.87767301     0.35700
N1633       N  0.17856453  0.76293264  0.98572227    -0.39100
N1634       N  0.10356319  0.65914397  0.85962450    -0.39100
N1635       N  0.18954497  0.66736384  0.96809046    -0.38500
N1636       N  0.09737140  0.75866829  0.87471013    -0.38500
C1637       C  0.27093777  0.97128784  0.93585313    -0.05200
C1638       C  0.24665087  0.95761839  0.95744675    -0.02300
C1639       C  0.21230700  0.91880025  0.95909612     0.02700
C1640       C  0.20328340  0.89327843  0.93950196    -0.05200
C1641       C  0.22757922  0.90712505  0.91788405    -0.02300
C1642       C  0.26109429  0.94638036  0.91594901     0.02700
C1643       C  0.25711504  0.98337621  0.97788192     0.37300
C1644       C  0.21754112  0.88145634  0.89735191     0.37300
C1645       C  0.28558998  0.96119434  0.89347377     0.35700
C1646       C  0.18642841  0.90492434  0.98091056     0.35700
N1647       N  0.30504547  0.97304705  0.87553494    -0.39100
N1648       N  0.16555945  0.89381640  0.99820326    -0.39100
N1649       N  0.20941514  0.86081372  0.88108794    -0.38500
N1650       N  0.26133273  0.51003106  0.99082421    -0.38500
C1651       C  0.18970322  0.54239888  0.08521578    -0.05200
C1652       C  0.22221587  0.53770623  0.08698821    -0.02300
C1653       C  0.25698639  0.57062898  0.09380891     0.02700
C1654       C  0.26325604  0.61110420  0.09244008    -0.05200
C1655       C  0.23139355  0.61675510  0.08936349    -0.02300
C1656       C  0.19439537  0.58209446  0.08764956     0.02700
C1657       C  0.22070339  0.00123754  0.08174482     0.37300
C1658       C  0.23563750  0.65766114  0.08825054     0.37300
C1659       C  0.16137858  0.58765629  0.08913766     0.35700
C1660       C  0.28365428  0.56175712  0.10578173     0.35700
N1661       N  0.13523488  0.59234847  0.09026633    -0.39100
N1662       N  0.30398560  0.55457289  0.11650232    -0.39100
N1663       N  0.23832897  0.68992462  0.08746182    -0.38500
N1664       N  0.22069208  0.97180270  0.07647472    -0.38500
C1665       C  0.34546747  0.75687379  0.09933846    -0.05200
C1666       C  0.33297550  0.76982332  0.07890159    -0.02300
C1667       C  0.32848736  0.80416421  0.07990168     0.02700
C1668       C  0.33878368  0.82689553  0.10069435    -0.05200
C1669       C  0.35255106  0.81496038  0.12079236    -0.02300
C1670       C  0.35516957  0.77912303  0.12031947     0.02700
C1671       C  0.32377793  0.74710986  0.05709127     0.37300
C1672       C  0.36293852  0.83898131  0.14197992     0.37300
C1673       C  0.36622884  0.76427922  0.14156907     0.35700
C1674       C  0.31169237  0.81519638  0.06007719     0.35700
N1675       N  0.37472764  0.75234837  0.15866013    -0.39100
N1676       N  0.29781807  0.82399060  0.04462921    -0.39100
N1677       N  0.37110911  0.85837940  0.15879500    -0.38500
N1678       N  0.31646583  0.72892561  0.03977986    -0.38500
C1679       C  0.47576544  0.68134346  0.07546931    -0.05200
C1680       C  0.44057768  0.64363820  0.08140851    -0.02300
C1681       C  0.40559020  0.64177932  0.07816707     0.02700
C1682       C  0.40485451  0.67877281  0.07456016    -0.05200
C1683       C  0.43969421  0.71595454  0.06681609    -0.02300
C1684       C  0.47494380  0.71684465  0.06660647     0.02700
C1685       C  0.43980777  0.60671888  0.09163457     0.37300
C1686       C  0.43917647  0.75251627  0.05744188     0.37300
C1687       C  0.51003549  0.75389858  0.05674159     0.35700
C1688       C  0.37201665  0.60192796  0.07485697     0.35700
N1689       N  0.03536670  0.78568241  0.04305406    -0.39100
N1690       N  0.34653490  0.56999746  0.07068471    -0.39100
N1691       N  0.43876894  0.78157573  0.04978345    -0.38500
N1692       N  0.43927349  0.57737701  0.09979086    -0.38500
C1693       C  0.57700269  0.21369569  0.08982598     0.03300
C1694       C  0.57869222  0.17923531  0.08144351    -0.12900
C1695       C  0.54817317  0.14984663  0.06826829     0.00800
C1696       C  0.01690231  0.15475048  0.06416415    -0.11400
C1697       C  0.01267723  0.18546157  0.07420181     0.03300
C1698       C  0.54399648  0.21620902  0.08621646    -0.10800
H1699       H  0.60279548  0.17532561  0.08520343     0.08900
H1700       H  0.99431187  0.13311895  0.05356167     0.06400
H1701       H  0.54063541  0.23985222  0.09454882     0.06200
C1702       C  0.79063791  0.38878716  0.10412784     0.03300
C1703       C  0.79842232  0.35681284  0.10793917    -0.12900
C1704       C  0.83344052  0.36183355  0.10013650     0.00800
C1705       C  0.86195097  0.39879146  0.08841077    -0.11400
C1706       C  0.85581218  0.43164813  0.08274011     0.03300
C1707       C  0.81921873  0.42667532  0.09056260    -0.10800
H1708       H  0.77678912  0.32723707  0.11714840     0.08900
H1709       H  0.88824465  0.40024831  0.08184355     0.06400
H1710       H  0.81366610  0.45168377  0.08687938     0.06200
C1711       C  0.58488617  0.47056189  0.06603161     0.03300
C1712       C  0.57427505  0.43313951  0.08004704    -0.12900
C1713       C  0.60221569  0.43092022  0.09365645     0.00800
C1714       C  0.63784721  0.46685322  0.09532788    -0.11400
C1715       C  0.64940964  0.50283948  0.08043886     0.03300
C1716       C  0.62304398  0.50368996  0.06499982    -0.10800
H1717       H  0.54567739  0.40628703  0.07966001     0.08900
H1718       H  0.65726876  0.46631830  0.10820672     0.06400
H1719       H  0.63177403  0.53083566  0.05261685     0.06200
C1720       C  0.86774309  0.17824683  0.08214163     0.80400
N1721       N  0.83183612  0.14372578  0.08414689    -0.77900
C1722       C  0.80125515  0.14518774  0.09425515     0.82800
N1723       N  0.80715833  0.18126085  0.10215659    -0.77900
C1724       C  0.84240439  0.21557107  0.10004303     0.82900
N1725       N  0.87244340  0.21403060  0.09005022    -0.79600
C1726       C  0.87776122  0.04383974  0.93652636     0.03300
C1727       C  0.84076607  0.00920703  0.94031205    -0.12900
C1728       C  0.80903224  0.01061647  0.93277496     0.00800
C1729       C  0.81358219  0.04693734  0.92137129    -0.11400
C1730       C  0.85028458  0.08210333  0.91637424     0.03300
C1731       C  0.88294341  0.08072388  0.92411529    -0.10800
H1732       H  0.83627280  0.48087211  0.95066510     0.08900
H1733       H  0.78855033  0.04652912  0.91454570     0.06400
H1734       H  0.91154429  0.10760257  0.92058444     0.06200
C1735       C  0.67373274  0.09807772  0.90720755     0.03300
C1736       C  0.63776227  0.06101469  0.91348324    -0.12900
C1737       C  0.60436560  0.06350203  0.91912007     0.00800
C1738       C  0.60747841  0.10245439  0.91708315    -0.11400
C1739       C  0.64298716  0.13866475  0.91306276     0.03300
C1740       C  0.67588460  0.13656941  0.90833561    -0.10800
H1741       H  0.63591392  0.03116943  0.91431064     0.08900
H1742       H  0.58273792  0.10535308  0.92178347     0.06400
H1743       H  0.70306188  0.16541508  0.90446238     0.06200
C1744       C  0.63555853  0.28324395  0.93404603     0.80400
N1745       N  0.66837335  0.31951063  0.93680459    -0.77900
C1746       C  0.66727352  0.35452639  0.93966159     0.82800
N1747       N  0.63337769  0.35340431  0.93944688    -0.77900
C1748       C  0.60046574  0.31725926  0.93681154     0.82900
N1749       N  0.60148859  0.28215820  0.93378164    -0.79600
C1750       C  0.90508230  0.30465402  0.90765775     0.03300
C1751       C  0.93697894  0.30129028  0.91274811    -0.12900
C1752       C  0.96552322  0.32967816  0.92646389     0.00800
C1753       C  0.96252702  0.36203355  0.93546057    -0.11400
C1754       C  0.93052544  0.36604820  0.93119672     0.03300
C1755       C  0.90120218  0.33693673  0.91720676    -0.10800
H1756       H  0.94032554  0.27696759  0.90530103     0.08900
H1757       H  0.98508022  0.38390312  0.94618018     0.06400
H1758       H  0.87635265  0.33958057  0.91365485     0.06200
Zr1759     Zr  0.98889921  0.50674599  0.05026907     2.17500
O1760       O  0.98256220  0.49053737  0.09428358    -0.51200
O1761       O  0.01881539  0.07661854  0.06598781    -0.74400
O1762       O  0.53250316  0.48179195  0.06143540    -0.81200
O1763       O  0.87939351  0.47956601  0.04677492    -0.82900
O1764       O  0.56658636  0.48097110  0.02785867    -0.78500
O1765       O  0.92234181  0.47356620  0.06967660    -0.90200
O1766       O  0.56193097  0.12036073  0.03589095    -0.76100
O1767       O  0.54082248  0.04603186  0.02083963    -0.85600
O1768       O  0.97515019  0.05459534  0.02869798    -0.85300
O1769       O  0.99051785  0.45764282  0.02387801    -0.72100
O1770       O  0.93195714  0.46639949  0.02938827    -0.84200
Zr1771     Zr  0.97399189  0.00554162  0.95201968     2.26400
Zr1772     Zr  0.54204064  0.99787796  0.99414644     2.06300
Zr1773     Zr  0.91823040  0.51364663  0.00816568     2.10000
Zr1774     Zr  0.52774307  0.09398737  0.99965360     1.78800
O1775       O  0.85019584  0.47233967  0.00095646    -0.93000
O1776       O  0.59605679  0.13842687  0.98773105    -0.40800
O1777       O  0.97176743  0.05383462  0.97858246    -0.77500
O1778       O  0.53122565  0.04818445  0.97309837    -0.96100
O1779       O  0.98629615  0.45753432  0.97406792    -0.89400
O1780       O  0.92050897  0.46647229  0.98083148    -0.92300
C1781       C  0.54538708  0.11340348  0.05710336     1.01500
C1782       C  0.88775774  0.46592981  0.06613478     1.14400
C1783       C  0.55865457  0.47673586  0.05092211     1.05200
O1784       O  0.61151009  0.04203366  0.99522802    -0.94400
O1785       O  0.57456496  0.01533261  0.95335770    -0.90200
O1786       O  0.53714845  0.02993981  0.92964285    -0.83300
C1787       C  0.56915933  0.03125771  0.93378638     1.11800
O1788       O  0.90901465  0.36768212  0.03812596    -0.96400
Zr1789     Zr  0.93279966  0.41863949  0.00298620     1.88900
O1790       O  0.95196721  0.43690004  0.93703105    -0.73100
O1791       O  0.54577907  0.43655159  0.98289063    -0.52300
O1792       O  0.95531729  0.36975781  0.00013876    -0.97000
O1793       O  0.86322684  0.38253135  0.01096707    -0.54200
O1794       O  0.91003127  0.38674565  0.96523995    -0.73600
C1795       C  0.92857942  0.39847651  0.94438221     0.98800
O1796       O  0.47961391  0.02821127  0.90855797    -0.62400
O1797       O  0.91053920  0.06924544  0.02368482    -0.57200
O1798       O  0.92569004  0.02428196  0.93964939    -0.93900
O1799       O  0.90685315  0.04589955  0.97245260    -0.92300
O1800       O  0.00595851  0.14155913  0.00737488    -0.92700
O1801       O  0.54492530  0.14377515  0.96448058    -0.91500
C1802       C  0.90721714  0.04008752  0.94975951     1.17600
H1803       H  0.97071978  0.07136014  0.03948015     0.33500
H1804       H  0.55355074  0.06822342  0.96298029     0.44400
H1805       H  0.89707545  0.45230380  0.97249245     0.37900
H1806       H  0.99386900  0.43719409  0.03300672     0.34400
H1807       H  0.60356607  0.16530913  0.99446058     0.26200
H1808       H  0.57315131  0.44522804  0.98431530     0.32100
H1809       H  0.93458587  0.34562436  0.99268521     0.38000
H1810       H  0.02950640  0.16821414  0.00989076     0.32500
H1811       H  0.88519471  0.06364167  0.01860377     0.31400
H1812       H  0.84010412  0.49119341  0.00309424     0.33100
H1813       H  0.85290176  0.38240855  0.99489967     0.32000
H1814       H  0.54413557  0.12844223  0.95017219     0.36000
H1815       H  0.95412860  0.00807868  0.90250536     0.28800
H1816       H  0.00857800  0.50836051  0.09997545     0.33000
H1817       H  0.89332943  0.34026709  0.03155018     0.35800
H1818       H  0.90664000  0.06289332  0.04158671     0.28500
H1819       H  0.48211591  0.05590509  0.90788459     0.41300
H1820       H  0.61793437  0.06840290  0.98606656     0.31400
H1821       H  0.60887586  0.12685046  0.99764175     0.39000
H1822       H  0.85852446  0.40182661  0.02004843     0.30800
H1823       H  0.53192586  0.41598745  0.99696515     0.30900
H1824       H  0.97772692  0.46188288  0.09651133     0.31200
C1825       C  0.74420197  0.30381386  0.72793249     0.03300
C1826       C  0.78180736  0.33426710  0.71999752    -0.12900
C1827       C  0.81282938  0.32972324  0.72492864     0.00800
C1828       C  0.80696786  0.29416242  0.73819322    -0.11400
C1829       C  0.77019104  0.26408877  0.74832494     0.03300
C1830       C  0.73811352  0.26877033  0.74307988    -0.10800
H1831       H  0.78715610  0.36232691  0.70965728     0.08900
H1832       H  0.83193122  0.29233455  0.74285482     0.06400
H1833       H  0.70933826  0.24543459  0.75014747     0.06200
C1834       C  0.71581861  0.04183648  0.76145074     0.03300
C1835       C  0.72094778  0.00956885  0.75305350    -0.12900
C1836       C  0.68784514  0.47533831  0.74105479     0.00800
C1837       C  0.65633831  0.47926911  0.73522671    -0.11400
C1838       C  0.65698389  0.01571097  0.74091271     0.03300
C1839       C  0.68404590  0.04448356  0.75512004    -0.10800
H1840       H  0.74584121  0.00767057  0.75764290     0.08900
H1841       H  0.63437497  0.45707620  0.72454353     0.06400
H1842       H  0.67986358  0.06879147  0.76172005     0.06200
C1843       C  0.94678907  0.23577214  0.76292730     0.03300
C1844       C  0.94339142  0.19707780  0.75960211    -0.12900
C1845       C  0.97472413  0.19494031  0.75031702     0.00800
C1846       C  0.50606703  0.22840837  0.74257902    -0.11400
C1847       C  0.51040532  0.26753154  0.74450801     0.03300
C1848       C  0.98174932  0.27271416  0.75524017    -0.10800
H1849       H  0.91660976  0.16841046  0.76478053     0.08900
H1850       H  0.52940839  0.22563131  0.73446851     0.06400
H1851       H  0.98420833  0.30266595  0.75648554     0.06200
C1852       C  0.98499570  0.05591525  0.72054042     0.80400
N1853       N  0.51936449  0.05704065  0.72246326    -0.77900
C1854       C  0.52253008  0.02358880  0.71794460     0.82800
N1855       N  0.98734855  0.48785356  0.70948574    -0.77900
C1856       C  0.95320858  0.48609047  0.70893198     0.82900
N1857       N  0.95281478  0.02022311  0.71606092    -0.79600
Zr1858     Zr  0.81242806  0.17471322  0.78501223     2.17500
O1859       O  0.82558092  0.17356969  0.74150928    -0.51200
O1860       O  0.79036138  0.21772942  0.76332687    -0.74400
O1861       O  0.76837398  0.10715867  0.76959530    -0.81200
O1862       O  0.91952793  0.25609745  0.79461061    -0.82900
O1863       O  0.72737053  0.06334926  0.80097856    -0.78500
O1864       O  0.88002504  0.20678196  0.77015294    -0.90200
O1865       O  0.75374791  0.23190988  0.78850266    -0.76100
O1866       O  0.75503109  0.15533434  0.80912910    -0.85600
O1867       O  0.82666450  0.23603814  0.80446250    -0.85300
O1868       O  0.80214137  0.11770982  0.81325344    -0.72100
O1869       O  0.86337659  0.18900925  0.81095691    -0.84200
Zr1870     Zr  0.80778279  0.17326310  0.88297241     2.26400
Zr1871     Zr  0.74491425  0.09945487  0.83796106     2.06300
Zr1872     Zr  0.87773292  0.24983066  0.83029314     2.10000
Zr1873     Zr  0.76915092  0.21672674  0.82846691     1.78800
O1874       O  0.94543561  0.28382336  0.83867506    -0.93000
O1875       O  0.69959017  0.18681189  0.82879375    -0.40800
O1876       O  0.82025767  0.23113554  0.85472072    -0.77500
O1877       O  0.75672020  0.16085433  0.85677593    -0.96100
O1878       O  0.79650640  0.11350021  0.86334614    -0.89400
O1879       O  0.86620407  0.19383507  0.85937898    -0.92300
C1880       C  0.76955278  0.23419424  0.76753016     1.01500
C1881       C  0.91364777  0.23478881  0.77588621     1.14400
C1882       C  0.73994247  0.07201772  0.77848084     1.05200
O1883       O  0.67660341  0.06674896  0.83168240    -0.94400
O1884       O  0.70392383  0.08133205  0.87583094    -0.90200
O1885       O  0.74131541  0.12984026  0.90143092    -0.83300
C1886       C  0.70844669  0.10037813  0.89535058     1.11800
O1887       O  0.87882816  0.10965108  0.80681936    -0.96400
Zr1888     Zr  0.85429238  0.13423811  0.83899793     1.88900
O1889       O  0.82846276  0.12779842  0.90310622    -0.73100
O1890       O  0.73915929  0.03329333  0.85064650    -0.52300
O1891       O  0.82744466  0.05942686  0.84452393    -0.97000
O1892       O  0.92445581  0.17027754  0.83543545    -0.54200
O1893       O  0.87190575  0.12266585  0.87885671    -0.73600
C1894       C  0.85209716  0.11481952  0.89902157     0.98800
O1895       O  0.80141770  0.18696619  0.92524994    -0.62400
O1896       O  0.88943628  0.31708893  0.81382933    -0.57200
O1897       O  0.85164740  0.23994949  0.89919418    -0.93900
O1898       O  0.89190609  0.28485643  0.86784533    -0.92300
O1899       O  0.79795575  0.29178388  0.82410212    -0.92700
O1900       O  0.74626099  0.23987441  0.86235379    -0.91500
C1901       C  0.87978966  0.27542506  0.89044048     1.17600
H1902       H  0.83429324  0.25974261  0.79305657     0.33500
H1903       H  0.73400745  0.15777352  0.86500451     0.44400
H1904       H  0.88731949  0.20248404  0.86979250     0.37900
H1905       H  0.79920321  0.09451496  0.80473945     0.34400
H1906       H  0.69131950  0.16730700  0.81578199     0.26200
H1907       H  0.73876885  0.03236850  0.86867736     0.32100
H1908       H  0.81570815  0.05135877  0.86145300     0.38000
H1909       H  0.77780935  0.29617896  0.81735579     0.32500
H1910       H  0.90869335  0.33744317  0.82413527     0.31400
H1911       H  0.95759688  0.31136738  0.82946156     0.33100
H1912       H  0.93302492  0.18883931  0.84892029     0.32000
H1913       H  0.73244491  0.25271112  0.85494541     0.36000
H1914       H  0.78035652  0.19313951  0.92609959     0.28800
H1915       H  0.80100303  0.16494485  0.73395037     0.33000
H1916       H  0.89236164  0.09733174  0.81522756     0.35800
H1917       H  0.90361507  0.32220237  0.79779769     0.28500
H1918       H  0.79105347  0.15995896  0.93484652     0.41300
H1919       H  0.67241837  0.09021084  0.82806841     0.31400
H1920       H  0.68882205  0.16867729  0.84412376     0.39000
H1921       H  0.93214645  0.18931876  0.82049430     0.30800
H1922       H  0.71261297  0.01220799  0.84719255     0.30900
H1923       H  0.82991203  0.15003197  0.74005951     0.31200
C1924       C  0.54341307  0.14061961  0.57591592     0.03300
C1925       C  0.57617858  0.13763695  0.57923136    -0.12900
C1926       C  0.60848573  0.16965393  0.58882844     0.00800
C1927       C  0.60811492  0.20448579  0.59582677    -0.11400
C1928       C  0.57557093  0.20791307  0.59397579     0.03300
C1929       C  0.54275024  0.17588610  0.58371952    -0.10800
H1930       H  0.57754343  0.11144278  0.57295009     0.08900
H1931       H  0.63313414  0.22841670  0.60398967     0.06400
H1932       H  0.51745642  0.17838713  0.58176878     0.06200
C1933       C  0.53691342  0.38584778  0.60217541     0.03300
C1934       C  0.49927275  0.35196716  0.60414272    -0.12900
C1935       C  0.46926272  0.35616807  0.59612585     0.00800
C1936       C  0.47645364  0.39424828  0.58602418    -0.11400
C1937       C  0.51416166  0.42854680  0.58263226     0.03300
C1938       C  0.54499484  0.42434633  0.59065034    -0.10800
H1939       H  0.49302006  0.32231306  0.61274046     0.08900
H1940       H  0.95157795  0.39687155  0.57919297     0.06400
H1941       H  0.57417866  0.45054212  0.58864921     0.06200
C1942       C  0.82505855  0.45969149  0.56644342     0.03300
C1943       C  0.82245094  0.49485144  0.56953073    -0.12900
C1944       C  0.78884351  0.49115005  0.57944058     0.00800
C1945       C  0.75716532  0.45227934  0.58612639    -0.11400
C1946       C  0.75915742  0.41615857  0.58490126     0.03300
C1947       C  0.79364082  0.41969655  0.57483060    -0.10800
H1948       H  0.85111361  0.02702379  0.56654576     0.08900
H1949       H  0.73152811  0.45078608  0.59403121     0.06400
H1950       H  0.79581625  0.39230809  0.57330444     0.06200
C1951       C  0.75026581  0.17210709  0.60242929     0.80400
N1952       N  0.78376483  0.20872743  0.60380256    -0.77900
C1953       C  0.81771802  0.20956730  0.60327809     0.82800
N1954       N  0.81811184  0.17407227  0.60101340    -0.77900
C1955       C  0.78488457  0.13759013  0.59984069     0.82900
N1956       N  0.75106351  0.13675798  0.60044589    -0.79600
Zr1957     Zr  0.64391415  0.33814272  0.71612138     2.17500
O1958       O  0.63802729  0.31862756  0.75970387    -0.51200
O1959       O  0.66655866  0.40405238  0.73588194    -0.74400
O1960       O  0.69021897  0.31553708  0.72772256    -0.81200
O1961       O  0.54139355  0.32497248  0.71534438    -0.82900
O1962       O  0.72003823  0.31341529  0.69242505    -0.78500
O1963       O  0.57702128  0.30157833  0.73377731    -0.90200
O1964       O  0.71088123  0.45345132  0.70871883    -0.76100
O1965       O  0.69790755  0.38051516  0.68778193    -0.85600
O1966       O  0.63064338  0.38770659  0.69666635    -0.85300
O1967       O  0.64511758  0.29220354  0.68710454    -0.72100
O1968       O  0.58707412  0.30117812  0.69432384    -0.84200
Zr1969     Zr  0.63091680  0.34790654  0.61828350     2.26400
Zr1970     Zr  0.69842847  0.33562785  0.65796010     2.06300
Zr1971     Zr  0.57461795  0.35114858  0.67495652     2.10000
Zr1972     Zr  0.68506882  0.43090244  0.66951770     1.78800
O1973       O  0.50559717  0.30635474  0.67191879    -0.93000
O1974       O  0.75443149  0.47202901  0.66012873    -0.40800
O1975       O  0.62877088  0.39404011  0.64686114    -0.77500
O1976       O  0.68744431  0.38792941  0.64029031    -0.96100
O1977       O  0.64116414  0.29644163  0.63729425    -0.89400
O1978       O  0.57601601  0.30619017  0.64601159    -0.92300
C1979       C  0.69082923  0.44242555  0.72899124     1.01500
C1980       C  0.54555184  0.30220520  0.73166367     1.14400
C1981       C  0.71471031  0.30934142  0.71571809     1.05200
O1982       O  0.76821253  0.37418986  0.65885242    -0.94400
O1983       O  0.73436903  0.36487182  0.61812945    -0.90200
O1984       O  0.69286220  0.37298808  0.59485820    -0.83300
C1985       C  0.72664757  0.37922846  0.59879839     1.11800
O1986       O  0.56552035  0.19904853  0.69767342    -0.96400
Zr1987     Zr  0.58717141  0.25572128  0.66594589     1.88900
O1988       O  0.60345759  0.27936925  0.60107411    -0.73100
O1989       O  0.69687340  0.27467026  0.64321692    -0.52300
O1990       O  0.60770361  0.20669601  0.65685349    -0.97000
O1991       O  0.51829499  0.22039001  0.67728717    -0.54200
O1992       O  0.55800266  0.23055390  0.62819377    -0.73600
C1993       C  0.57675663  0.24156757  0.60748783     0.98800
O1994       O  0.63153092  0.37209478  0.57615750    -0.62400
O1995       O  0.56778715  0.40848803  0.68792755    -0.57200
O1996       O  0.58705816  0.37080350  0.60511312    -0.93900
O1997       O  0.55790312  0.37725608  0.63937542    -0.92300
O1998       O  0.66487826  0.48065675  0.67709871    -0.92700
O1999       O  0.70850204  0.48734712  0.63761358    -0.91500
C2000       C  0.56397936  0.37967885  0.61618396     1.17600
H2001       H  0.62453336  0.40273551  0.70777785     0.33500
H2002       H  0.70919235  0.40931125  0.63041349     0.44400
H2003       H  0.55259848  0.29365987  0.63756472     0.37900
H2004       H  0.64821676  0.27080456  0.69524299     0.34400
H2005       H  0.76419786  0.49371329  0.67189161     0.26200
H2006       H  0.70327853  0.28110434  0.62541162     0.32100
H2007       H  0.58468999  0.18245608  0.65113072     0.38000
H2008       H  0.68784340  0.50488898  0.68288403     0.32500
H2009       H  0.54304089  0.40328067  0.68190960     0.31400
H2010       H  0.99635107  0.32712368  0.67910083     0.33100
H2011       H  0.50642017  0.22348547  0.66250426     0.32000
H2012       H  0.68839831  0.47704930  0.62572887     0.36000
H2013       H  0.65384009  0.40082194  0.57384626     0.28800
H2014       H  0.66413829  0.33579338  0.76542047     0.33000
H2015       H  0.54551805  0.17387655  0.69056130     0.35800
H2016       H  0.56293568  0.40376783  0.70588849     0.28500
H2017       H  0.63847320  0.35563692  0.56588467     0.41300
H2018       H  0.77358145  0.39348558  0.67178127     0.31400
H2019       H  0.76406824  0.45351826  0.66529404     0.39000
H2020       H  0.51531763  0.23811174  0.68883044     0.30800
H2021       H  0.71962961  0.27517997  0.64969422     0.30900
H2022       H  0.63306388  0.28987728  0.76092249     0.31200
C2023       C  0.90076938  0.36589532  0.42838750     0.03300
C2024       C  0.90151251  0.33049358  0.42108050    -0.12900
C2025       C  0.86720693  0.29578111  0.41406378     0.00800
C2026       C  0.83311779  0.29665739  0.41548544    -0.11400
C2027       C  0.83323673  0.33253495  0.42059771     0.03300
C2028       C  0.86676224  0.36688449  0.42708725    -0.10800
H2029       H  0.92811976  0.33015894  0.42061810     0.08900
H2030       H  0.80675181  0.27083760  0.40994522     0.06400
H2031       H  0.86589848  0.39414204  0.43171577     0.06200
C2032       C  0.90951940  0.12877110  0.39400458     0.03300
C2033       C  0.94775889  0.16019279  0.38838067    -0.12900
C2034       C  0.97773451  0.15748980  0.39782094     0.00800
C2035       C  0.97034055  0.12274485  0.41233410    -0.11400
C2036       C  0.93262697  0.09034476  0.41862133     0.03300
C2037       C  0.90143430  0.09369096  0.40991473    -0.10800
H2038       H  0.95441002  0.18787517  0.37705893     0.08900
H2039       H  0.99453573  0.12226987  0.41993475     0.06400
H2040       H  0.87200433  0.06918176  0.41460306     0.06200
C2041       C  0.61176809  0.03892805  0.43147242     0.03300
C2042       C  0.61162855  0.00316148  0.42534812    -0.12900
C2043       C  0.64290787  0.00631004  0.41205494     0.00800
C2044       C  0.67471899  0.04488095  0.40491872    -0.11400
C2045       C  0.67580220  0.08151559  0.41004739     0.03300
C2046       C  0.64370834  0.07876996  0.42331178    -0.10800
H2047       H  0.58767960  0.97269411  0.43166476     0.08900
H2048       H  0.69879213  0.04615556  0.39476021     0.06400
H2049       H  0.64386011  0.10670082  0.42756639     0.06200
C2050       C  0.69677020  0.33454901  0.39824457     0.80400
N2051       N  0.69779697  0.37117712  0.39819030    -0.77900
C2052       C  0.66542354  0.37242077  0.39506157     0.82800
N2053       N  0.63214093  0.33710387  0.39225437    -0.77900
C2054       C  0.63068198  0.30034208  0.39283837     0.82900
N2055       N  0.66302815  0.29891007  0.39599028    -0.79600
Zr2056     Zr  0.98399265  0.00837961  0.45050398     2.17500
O2057       O  0.49680869  0.02633095  0.40797864    -0.51200
O2058       O  0.94273201  0.43768135  0.43329007    -0.74400
O2059       O  0.54837739  0.02640192  0.43788163    -0.81200
O2060       O  0.90552637  0.04260764  0.45428555    -0.82900
O2061       O  0.58139007  0.02722699  0.47077964    -0.78500
O2062       O  0.95665079  0.04794543  0.43224511    -0.90200
O2063       O  0.93892248  0.39045143  0.46169554    -0.76100
O2064       O  0.99045052  0.46136962  0.47854930    -0.85600
O2065       O  0.91854686  0.46044657  0.47099139    -0.85300
O2066       O  0.52923039  0.05273229  0.47917935    -0.72100
O2067       O  0.96716776  0.05103105  0.47250256    -0.84200
Zr2068     Zr  0.95838611  0.50343546  0.54799331     2.26400
Zr2069     Zr  0.53762190  0.00718766  0.50717694     2.06300
Zr2070     Zr  0.90533895  0.00665245  0.49290445     2.10000
Zr2071     Zr  0.92827058  0.41642434  0.49865874     1.78800
O2072       O  0.88388091  0.05507436  0.50130806    -0.93000
O2073       O  0.94691087  0.36654297  0.51165630    -0.40800
O2074       O  0.91170949  0.45926587  0.52070264    -0.77500
O2075       O  0.97350093  0.45855475  0.52605752    -0.96100
O2076       O  0.52058896  0.05032810  0.52853799    -0.89400
O2077       O  0.95110266  0.04878527  0.52116167    -0.92300
C2078       C  0.93154268  0.39996874  0.44088758     1.01500
C2079       C  0.92969553  0.05650949  0.43550954     1.14400
C2080       C  0.57889116  0.03191723  0.44772993     1.05200
O2081       O  0.56701824  0.46468888  0.50558211    -0.94400
O2082       O  0.54013132  0.47615634  0.54754794    -0.90200
O2083       O  0.49165063  0.47306056  0.57156375    -0.83300
C2084       C  0.51814703  0.46425076  0.56732531     1.11800
O2085       O  0.54442651  0.14417322  0.46585220    -0.96400
Zr2086     Zr  0.51028524  0.09429931  0.50089880     1.88900
O2087       O  0.00239960  0.07100645  0.56520057    -0.73100
O2088       O  0.59704185  0.06416719  0.52050038    -0.52300
O2089       O  0.57775121  0.14245148  0.50711204    -0.97000
O2090       O  0.48103852  0.13626769  0.49250855    -0.54200
O2091       O  0.51306598  0.12445755  0.53908337    -0.73600
C2092       C  0.51517006  0.11018352  0.56014168     0.98800
O2093       O  0.93464854  0.48544814  0.59078367    -0.62400
O2094       O  0.84016009  0.45265034  0.47788490    -0.57200
O2095       O  0.89090306  0.47893683  0.56147597    -0.93900
O2096       O  0.86010579  0.97510950  0.52853059    -0.92300
O2097       O  0.86240868  0.37254225  0.48751904    -0.92700
O2098       O  0.88717085  0.36586220  0.53186276    -0.91500
C2099       C  0.86236559  0.96980165  0.55152814     1.17600
H2100       H  0.89885947  0.44519003  0.46002256     0.33500
H2101       H  0.97241847  0.43612315  0.53595712     0.44400
H2102       H  0.94197857  0.06382990  0.53024918     0.37900
H2103       H  0.55313850  0.07274540  0.47030972     0.34400
H2104       H  0.93049021  0.34157224  0.50297622     0.26200
H2105       H  0.59187743  0.06440096  0.53819576     0.32100
H2106       H  0.59186920  0.13054612  0.49916379     0.38000
H2107       H  0.85970549  0.34511777  0.48553040     0.32500
H2108       H  0.82269062  0.46300946  0.48202189     0.31400
H2109       H  0.85544058  0.03790497  0.50283345     0.33100
H2110       H  0.46215916  0.12929172  0.50647976     0.32000
H2111       H  0.89951935  0.37833775  0.54688118     0.36000
H2112       H  0.92735012  0.45605719  0.59408201     0.28800
H2113       H  0.50512877  0.00768572  0.40164959     0.33000
H2114       H  0.55044258  0.17149667  0.47125100     0.35800
H2115       H  0.84411123  0.45687781  0.45987570     0.28500
H2116       H  0.95757812  0.50136622  0.60011360     0.41300
H2117       H  0.54536053  0.43557968  0.50704617     0.31400
H2118       H  0.97308880  0.37790254  0.50385323     0.39000
H2119       H  0.96898756  0.12551012  0.47696428     0.30800
H2120       H  0.61552877  0.05430123  0.51957976     0.30900
H2121       H  0.52009326  0.05441416  0.40615380     0.31200
C2122       C  0.70930091  0.47873071  0.24262599     0.03300
C2123       C  0.70984711  0.01432840  0.24897944    -0.12900
C2124       C  0.74433310  0.04936846  0.25572316     0.00800
C2125       C  0.77867516  0.04917715  0.25340469    -0.11400
C2126       C  0.77903481  0.01424539  0.24659857     0.03300
C2127       C  0.74392999  0.47874688  0.24211067    -0.10800
H2128       H  0.68305274  0.01425816  0.25012465     0.08900
H2129       H  0.80508521  0.07510780  0.25901671     0.06400
H2130       H  0.74523007  0.45274801  0.23541873     0.06200
C2131       C  0.70409168  0.22389113  0.27410532     0.03300
C2132       C  0.66581360  0.19118929  0.27617071    -0.12900
C2133       C  0.63695942  0.19608474  0.26660720     0.00800
C2134       C  0.64563846  0.23402009  0.25559542    -0.11400
C2135       C  0.68367402  0.26751815  0.25250056     0.03300
C2136       C  0.71365696  0.26237004  0.26149137    -0.10800
H2137       H  0.65838434  0.16129727  0.28502886     0.08900
H2138       H  0.62242797  0.23626652  0.24778237     0.06400
H2139       H  0.74324636  0.28765499  0.25921706     0.06200
C2140       C  0.49422890  0.29653115  0.23459667     0.03300
C2141       C  0.49285855  0.33236827  0.23810893    -0.12900
C2142       C  0.95994907  0.33155572  0.24520881     0.00800
C2143       C  0.92795473  0.29317403  0.25271937    -0.11400
C2144       C  0.92930936  0.25651432  0.25241010     0.03300
C2145       C  0.96363063  0.25902538  0.24300374    -0.10800
H2146       H  0.51710971  0.36269191  0.23183512     0.08900
H2147       H  0.90257020  0.29246267  0.26042716     0.06400
H2148       H  0.96536068  0.23123964  0.24230847     0.06200
C2149       C  0.92304656  0.02022202  0.25247452     0.80400
N2150       N  0.95655913  0.05602948  0.25511017    -0.77900
C2151       C  0.48771125  0.04999603  0.26385439     0.82800
N2152       N  0.48672243  0.01331433  0.26459922    -0.77900
C2153       C  0.95273049  0.47851769  0.25749010     0.82900
N2154       N  0.91982684  0.47917309  0.25565878    -0.79600
Zr2155     Zr  0.65597644  0.34887217  0.12033323     2.17500
O2156       O  0.67256028  0.36625337  0.07657991    -0.51200
O2157       O  0.61910020  0.28271578  0.10064820    -0.74400
O2158       O  0.72489827  0.37545379  0.10686151    -0.81200
O2159       O  0.57135168  0.37501514  0.12431404    -0.82900
O2160       O  0.75341021  0.37157955  0.14108962    -0.78500
O2161       O  0.62685291  0.38817041  0.10398732    -0.90200
O2162       O  0.60423799  0.22849773  0.12777849    -0.76100
O2163       O  0.66558967  0.30386807  0.14759613    -0.85600
O2164       O  0.59335530  0.30114213  0.13945664    -0.85300
O2165       O  0.69949880  0.39283009  0.14938035    -0.72100
O2166       O  0.63456977  0.38699067  0.14308128    -0.84200
Zr2167     Zr  0.62748159  0.33947706  0.21797974     2.26400
Zr2168     Zr  0.70823744  0.34714237  0.17705241     2.06300
Zr2169     Zr  0.57258140  0.33963350  0.16241037     2.10000
Zr2170     Zr  0.60289410  0.25618578  0.16634410     1.78800
O2171       O  0.55002575  0.38703118  0.17128830    -0.93000
O2172       O  0.62970729  0.21201825  0.17511775    -0.40800
O2173       O  0.58258527  0.29493126  0.18978665    -0.77500
O2174       O  0.64536927  0.29742185  0.19532148    -0.96100
O2175       O  0.68859064  0.38804980  0.19838662    -0.89400
O2176       O  0.61566950  0.38326840  0.19133519    -0.92300
C2177       C  0.60386793  0.24344619  0.10650870     1.01500
C2178       C  0.59790818  0.39364491  0.10705330     1.14400
C2179       C  0.75437250  0.38000925  0.11798157     1.05200
O2180       O  0.74135145  0.30837635  0.17435112    -0.94400
O2181       O  0.71001222  0.31473409  0.21686096    -0.90200
O2182       O  0.66149649  0.31188770  0.24078899    -0.83300
C2183       C  0.68807609  0.30312755  0.23671658     1.11800
O2184       O  0.71491724  0.48404413  0.13824055    -0.96400
Zr2185     Zr  0.67691113  0.43121449  0.17110168     1.88900
O2186       O  0.66723998  0.40743155  0.23536468    -0.73100
O2187       O  0.76418329  0.40462904  0.19322411    -0.52300
O2188       O  0.74231666  0.47946060  0.18145584    -0.97000
O2189       O  0.64765296  0.47169407  0.15874772    -0.54200
O2190       O  0.67097183  0.45742465  0.20916919    -0.73600
C2191       C  0.67840956  0.44579285  0.22931526     0.98800
O2192       O  0.60965065  0.32111700  0.26162983    -0.62400
O2193       O  0.51202596  0.29046021  0.14593306    -0.57200
O2194       O  0.55973065  0.31563027  0.23004877    -0.93900
O2195       O  0.52535662  0.30477492  0.19651002    -0.92300
O2196       O  0.53563796  0.21352142  0.15756770    -0.92700
O2197       O  0.56630836  0.20037840  0.19815167    -0.91500
C2198       C  0.52810576  0.30370258  0.21962519     1.17600
H2199       H  0.57421870  0.28628884  0.12808164     0.33500
H2200       H  0.64457308  0.27508358  0.20516121     0.44400
H2201       H  0.60479831  0.39686606  0.20024500     0.37900
H2202       H  0.72355483  0.41430697  0.14135467     0.34400
H2203       H  0.61213645  0.18548652  0.16814875     0.26200
H2204       H  0.76134429  0.39757481  0.21105034     0.32100
H2205       H  0.75844136  0.47028724  0.17309887     0.38000
H2206       H  0.52230401  0.22546626  0.16643168     0.32500
H2207       H  0.49492458  0.30168636  0.14898800     0.31400
H2208       H  0.52182796  0.36904740  0.17455830     0.33100
H2209       H  0.63903939  0.47792784  0.17417162     0.32000
H2210       H  0.57134688  0.21448540  0.21348547     0.36000
H2211       H  0.59963177  0.33884900  0.26701234     0.28800
H2212       H  0.67955023  0.34603872  0.07113465     0.33000
H2213       H  0.72056663  0.51068238  0.14455838     0.35800
H2214       H  0.51728409  0.29421063  0.12799721     0.28500
H2215       H  0.58727981  0.29240427  0.26326558     0.41300
H2216       H  0.72363625  0.28333821  0.16615088     0.31400
H2217       H  0.65368750  0.22438428  0.16440770     0.39000
H2218       H  0.62350034  0.45171684  0.15165432     0.30800
H2219       H  0.78616006  0.40192806  0.18737754     0.30900
H2220       H  0.64789789  0.35793828  0.06921678     0.31200
Zr2221     Zr  0.81018007  0.16146694  0.38279804     2.17500
O2222       O  0.80615995  0.13409836  0.42464224    -0.51200
O2223       O  0.83850505  0.22515529  0.40496836    -0.74400
O2224       O  0.85442526  0.13703142  0.39346987    -0.81200
O2225       O  0.70421463  0.14213412  0.38262317    -0.82900
O2226       O  0.88869899  0.14395440  0.35806228    -0.78500
O2227       O  0.74290071  0.12251732  0.40060199    -0.90200
O2228       O  0.88422396  0.27480057  0.37862961    -0.76100
O2229       O  0.86472723  0.20707555  0.35554164    -0.85600
O2230       O  0.79775489  0.21427776  0.36775354    -0.85300
O2231       O  0.81286071  0.12020983  0.35108669    -0.72100
O2232       O  0.75406117  0.12874321  0.36019666    -0.84200
Zr2233     Zr  0.79993190  0.18584068  0.28611371     2.26400
Zr2234     Zr  0.86680691  0.16685460  0.32338523     2.06300
Zr2235     Zr  0.74217474  0.18143230  0.34489545     2.10000
Zr2236     Zr  0.85220546  0.25973916  0.34090950     1.78800
O2237       O  0.67257312  0.14668113  0.34339399    -0.93000
O2238       O  0.92017757  0.30740440  0.32939001    -0.40800
O2239       O  0.79655995  0.22696145  0.31755851    -0.77500
O2240       O  0.85637331  0.22178341  0.30909915    -0.96100
O2241       O  0.81000690  0.13197989  0.30164352    -0.89400
O2242       O  0.74455609  0.14110495  0.31302056    -0.92300
C2243       C  0.86558998  0.26300163  0.39938997     1.01500
C2244       C  0.70990915  0.11980123  0.39845713     1.14400
C2245       C  0.88113324  0.13520702  0.38121126     1.05200
O2246       O  0.93620854  0.19714306  0.32355790    -0.94400
O2247       O  0.90360959  0.20263800  0.28446560    -0.90200
O2248       O  0.86278134  0.21487344  0.26295026    -0.83300
C2249       C  0.89631165  0.21973273  0.26617465     1.11800
O2250       O  0.73578533  0.02952714  0.35925139    -0.96400
Zr2251     Zr  0.75540120  0.08793332  0.32915108     1.88900
O2252       O  0.77355780  0.12004314  0.26568870    -0.73100
O2253       O  0.86102584  0.10573959  0.30583793    -0.52300
O2254       O  0.77395973  0.04017958  0.31406847    -0.97000
O2255       O  0.68679287  0.04866522  0.34131258    -0.54200
O2256       O  0.72600179  0.06968238  0.29083993    -0.73600
C2257       C  0.74602019  0.08205165  0.27061618     0.98800
O2258       O  0.80082764  0.21612038  0.24561465    -0.62400
O2259       O  0.74217726  0.24026455  0.36182573    -0.57200
O2260       O  0.75613371  0.21082436  0.27537019    -0.93900
O2261       O  0.72295968  0.20766620  0.31048011    -0.92300
O2262       O  0.82867268  0.30220697  0.35742635    -0.92700
O2263       O  0.86719901  0.31930339  0.31297791    -0.91500
C2264       C  0.73085495  0.21548043  0.28736431     1.17600
H2265       H  0.79266955  0.22792079  0.38044687     0.33500
H2266       H  0.87833180  0.24475117  0.30015748     0.44400
H2267       H  0.72125395  0.12992502  0.30447940     0.37900
H2268       H  0.81592875  0.09795173  0.35792342     0.34400
H2269       H  0.92826161  0.33011620  0.34038204     0.26200
H2270       H  0.87057633  0.11490187  0.28853841     0.32100
H2271       H  0.79145074  0.03946152  0.32597985     0.38000
H2272       H  0.85203976  0.32643160  0.36278719     0.32500
H2273       H  0.74823762  0.26041030  0.34763192     0.31400
H2274       H  0.66592050  0.12378303  0.33274860     0.33100
H2275       H  0.67353342  0.04362438  0.32597628     0.32000
H2276       H  0.86472949  0.30897467  0.29653485     0.36000
H2277       H  0.82253692  0.24519766  0.24482427     0.28800
H2278       H  0.79356302  0.14575087  0.43455620     0.33000
H2279       H  0.71925475  0.00426125  0.35083195     0.35800
H2280       H  0.71481260  0.22984310  0.36672281     0.28500
H2281       H  0.80901573  0.20224156  0.23405194     0.41300
H2282       H  0.94554582  0.22474471  0.32980897     0.31400
H2283       H  0.93305106  0.29231658  0.33498841     0.39000
H2284       H  0.68151620  0.06859588  0.34914390     0.30800
H2285       H  0.88103474  0.10185361  0.31326282     0.30900
H2286       H  0.78705011  0.10401224  0.42507303     0.31200
C2287       C  0.95868776  0.36959313  0.24808700    -0.05200
C2288       C  0.47222532  0.38927632  0.27273015    -0.02300
C2289       C  0.46957479  0.42472693  0.27593663     0.02700
C2290       C  0.95323020  0.44014239  0.25458739    -0.05200
C2291       C  0.94402198  0.42136070  0.23226994    -0.02300
C2292       C  0.94634759  0.38574040  0.22914740     0.02700
C2293       C  0.48963489  0.37554720  0.29072409     0.37300
C2294       C  0.93389822  0.43969114  0.21215782     0.37300
C2295       C  0.93729660  0.36637449  0.20623192     0.35700
C2296       C  0.48312868  0.44670750  0.29775288     0.35700
N2297       N  0.93040662  0.35090308  0.18795834    -0.39100
N2298       N  0.49398084  0.46404028  0.31521287    -0.39100
N2299       N  0.92610426  0.45436950  0.19600264    -0.38500
N2300       N  0.50372537  0.36467404  0.30495759    -0.38500
C2301       C  0.52501101  0.08896704  0.26361169    -0.05200
C2302       C  0.53025009  0.11985215  0.27932932    -0.02300
C2303       C  0.56688226  0.15550615  0.28007395     0.02700
C2304       C  0.59812135  0.15994459  0.26532506    -0.05200
C2305       C  0.59241246  0.13036905  0.24864527    -0.02300
C2306       C  0.55598449  0.09487375  0.24781653     0.02700
C2307       C  0.49856753  0.11419043  0.29550039     0.37300
C2308       C  0.62406863  0.13661323  0.23218030     0.37300
C2309       C  0.55054688  0.06450511  0.23060894     0.35700
C2310       C  0.57267556  0.18736052  0.29618595     0.35700
N2311       N  0.54627901  0.04005910  0.21710686    -0.39100
N2312       N  0.57740940  0.21301828  0.30885840    -0.39100
N2313       N  0.64923292  0.14145075  0.21906800    -0.38500
N2314       N  0.47330979  0.10962890  0.30842355    -0.38500
C2315       C  0.88666769  0.01970587  0.25109176    -0.05200
C2316       C  0.88158065  0.04201415  0.23162830    -0.02300
C2317       C  0.84576639  0.03911157  0.22968838     0.02700
C2318       C  0.81521428  0.01401692  0.24719742    -0.05200
C2319       C  0.81576535  0.48472455  0.26771695    -0.02300
C2320       C  0.85094772  0.48646740  0.27037650     0.02700
C2321       C  0.91256089  0.06664495  0.21309673     0.37300
C2322       C  0.78206489  0.45545304  0.28336294     0.37300
C2323       C  0.85354167  0.45933486  0.28901245     0.35700
C2324       C  0.84013712  0.06171871  0.20964499     0.35700
N2325       N  0.85591432  0.43774076  0.30372524    -0.39100
N2326       N  0.83550957  0.07973740  0.19373100    -0.39100
N2327       N  0.75497896  0.43192306  0.29559298    -0.38500
N2328       N  0.93699940  0.08624886  0.19814832    -0.38500
C2329       C  0.64521729  0.96941385  0.40771059    -0.05200
C2330       C  0.63902104  0.45497773  0.39008649    -0.02300
C2331       C  0.64623054  0.42376985  0.38365110     0.02700
C2332       C  0.66375657  0.40941349  0.40000001    -0.05200
C2333       C  0.67437213  0.42647849  0.42275030    -0.02300
C2334       C  0.66153344  0.95544446  0.42516313     0.02700
C2335       C  0.61925109  0.46840453  0.37383996     0.37300
C2336       C  0.69001865  0.40990410  0.44038482     0.37300
C2337       C  0.66903628  0.97246008  0.44884042     0.35700
C2338       C  0.63629667  0.40687343  0.36005319     0.35700
N2339       N  0.67447880  0.98590930  0.46773538    -0.39100
N2340       N  0.62869516  0.39339882  0.34122614    -0.39100
N2341       N  0.70243572  0.39659424  0.45440429    -0.38500
N2342       N  0.60316718  0.47864453  0.36086174    -0.38500
C2343       C  0.59286251  0.26224870  0.39499906    -0.05200
C2344       C  0.58467282  0.22955621  0.38014525    -0.02300
C2345       C  0.04655089  0.19307445  0.38195622     0.02700
C2346       C  0.01681020  0.19376566  0.39562487    -0.05200
C2347       C  0.52727074  0.22429418  0.41334282    -0.02300
C2348       C  0.56439092  0.25899005  0.41214173     0.02700
C2349       C  0.61460375  0.23168537  0.36376571     0.37300
C2350       C  0.99423442  0.22762844  0.42403463     0.37300
C2351       C  0.57333984  0.29071433  0.42911585     0.35700
C2352       C  0.03814163  0.15717972  0.36875611     0.35700
N2353       N  0.58035781  0.31605700  0.44252906    -0.39100
N2354       N  0.03137726  0.12842122  0.35835689    -0.39100
N2355       N  0.96992666  0.22775822  0.43566783    -0.38500
N2356       N  0.63864225  0.23328829  0.35090703    -0.38500
C2357       C  0.73134368  0.33337049  0.40382744    -0.05200
C2358       C  0.73026353  0.30796958  0.42403757    -0.02300
C2359       C  0.76404600  0.30881811  0.43013654     0.02700
C2360       C  0.79885256  0.33512843  0.41610617    -0.05200
C2361       C  0.79986766  0.36055764  0.39592234    -0.02300
C2362       C  0.76609931  0.35961457  0.38978874     0.02700
C2363       C  0.69463068  0.28138950  0.43880582     0.37300
C2364       C  0.83520353  0.38634636  0.38073817     0.37300
C2365       C  0.76678362  0.38438579  0.36840275     0.35700
C2366       C  0.76293100  0.28237647  0.45072635     0.35700
N2367       N  0.76725460  0.40399507  0.35132934    -0.39100
N2368       N  0.76181044  0.26100102  0.46704355    -0.39100
N2369       N  0.86320071  0.40682059  0.36847439    -0.38500
N2370       N  0.66622208  0.26000125  0.45051534    -0.38500
C2371       C  0.79118772  0.02985562  0.58628078    -0.05200
C2372       C  0.81191455  0.05482551  0.60491804    -0.02300
C2373       C  0.80941465  0.08984980  0.60960743     0.02700
C2374       C  0.78607089  0.09980593  0.59567626    -0.05200
C2375       C  0.76515890  0.07447182  0.57708744    -0.02300
C2376       C  0.76764981  0.03946868  0.57250944     0.02700
C2377       C  0.83504203  0.04387665  0.61962992     0.37300
C2378       C  0.74217496  0.08494422  0.56190365     0.37300
C2379       C  0.74634893  0.01349890  0.55336898     0.35700
C2380       C  0.83028302  0.11517352  0.62907362     0.35700
N2381       N  0.72927466  0.99251917  0.53826246    -0.39100
N2382       N  0.84692887  0.13575685  0.64443808    -0.39100
N2383       N  0.72368540  0.09280639  0.54965618    -0.38500
N2384       N  0.85341272  0.03506220  0.63135914    -0.38500
C2385       C  0.92853027  0.32085976  0.59905515    -0.05200
C2386       C  0.90355780  0.31015302  0.62017702    -0.02300
C2387       C  0.86672505  0.27402121  0.62152852     0.02700
C2388       C  0.85468985  0.24922202  0.60155455    -0.05200
C2389       C  0.87957304  0.26036787  0.58033403    -0.02300
C2390       C  0.91672286  0.29551445  0.57933960     0.02700
C2391       C  0.91638619  0.33536458  0.64081604     0.37300
C2392       C  0.86689363  0.23554517  0.55947440     0.37300
C2393       C  0.94361279  0.30433186  0.55860309     0.35700
C2394       C  0.84209556  0.26105888  0.64386304     0.35700
N2395       N  0.46552868  0.30998374  0.54013952    -0.39100
N2396       N  0.82248984  0.25038178  0.66172237    -0.39100
N2397       N  0.85652414  0.21563748  0.54291869    -0.38500
N2398       N  0.92667988  0.35527001  0.65737435    -0.38500
C2399       C  0.71377294  0.17122133  0.59920134    -0.05200
C2400       C  0.71261851  0.19859624  0.58110702    -0.02300
C2401       C  0.67796256  0.19753624  0.57752466     0.02700
C2402       C  0.64391151  0.16801116  0.59126622    -0.05200
C2403       C  0.64446752  0.13924419  0.60849218    -0.02300
C2404       C  0.67939196  0.14090873  0.61255781     0.02700
C2405       C  0.74650875  0.22632196  0.56514277     0.37300
C2406       C  0.60923247  0.10862045  0.62238702     0.37300
C2407       C  0.67979806  0.11156304  0.63059249     0.35700
C2408       C  0.67726909  0.22693567  0.55964708     0.35700
N2409       N  0.67982730  0.08783709  0.64485787    -0.39100
N2410       N  0.67652790  0.25055725  0.54565761    -0.39100
N2411       N  0.58092399  0.08417403  0.63324038    -0.38500
N2412       N  0.77342821  0.24812099  0.55227986    -0.38500
C2413       C  0.98106674  0.09061178  0.72870481    -0.05200
C2414       C  0.49126972  0.10485976  0.75152250    -0.02300
C2415       C  0.48529284  0.13649988  0.75911685     0.02700
C2416       C  0.97159741  0.15523551  0.74485625    -0.05200
C2417       C  0.95634748  0.13762684  0.72292545    -0.02300
C2418       C  0.96082198  0.10518378  0.71493236     0.02700
C2419       C  0.50922383  0.08864782  0.76746403     0.37300
C2420       C  0.93763977  0.15422720  0.70798895     0.37300
C2421       C  0.94584225  0.08798482  0.69202113     0.35700
C2422       C  0.49775029  0.15339145  0.78246566     0.35700
N2423       N  0.93376857  0.07426702  0.67378467    -0.39100
N2424       N  0.50755881  0.16693774  0.80107783    -0.39100
N2425       N  0.92289048  0.16751900  0.69596077    -0.38500
N2426       N  0.52371088  0.07589657  0.78015273    -0.38500
C2427       C  0.55738222  0.02250891  0.72393463    -0.05200
C2428       C  0.59432237  0.05477089  0.71489400    -0.02300
C2429       C  0.62705191  0.05254674  0.72030717     0.02700
C2430       C  0.62292918  0.01838144  0.73502255    -0.05200
C2431       C  0.58219600  0.48422746  0.74466175    -0.02300
C2432       C  0.54997381  0.48662927  0.73855281     0.02700
C2433       C  0.59873555  0.08989642  0.69972978     0.37300
C2434       C  0.57711135  0.44971125  0.76084630     0.37300
C2435       C  0.51242661  0.45493850  0.74944599     0.35700
C2436       C  0.66495678  0.08517257  0.71056381     0.35700
N2437       N  0.98303688  0.42490774  0.75164407    -0.39100
N2438       N  0.69526942  0.11121065  0.70294756    -0.39100
N2439       N  0.57290824  0.42206203  0.77362998    -0.38500
N2440       N  0.60243339  0.11811464  0.68776103    -0.38500
C2441       C  0.85158430  0.36658937  0.72037093    -0.05200
C2442       C  0.86702231  0.38316967  0.69628046    -0.02300
C2443       C  0.90073923  0.42243874  0.69228270     0.02700
C2444       C  0.91819187  0.44523425  0.71230005    -0.05200
C2445       C  0.90299848  0.42851021  0.73633691    -0.02300
C2446       C  0.86999175  0.38911641  0.74037161     0.02700
C2447       C  0.84783907  0.36030079  0.67568309     0.37300
C2448       C  0.92099774  0.45212345  0.75704368     0.37300
C2449       C  0.85376662  0.37291713  0.76514733     0.35700
C2450       C  0.91707839  0.43978088  0.66771526     0.35700
N2451       N  0.84097803  0.36024609  0.78492770    -0.39100
N2452       N  0.93024277  0.45361115  0.64812328    -0.39100
N2453       N  0.93515918  0.47067581  0.77363114    -0.38500
N2454       N  0.83270282  0.34238919  0.65910918    -0.37300
C2455       C  0.56503058  0.31814607  0.93368462    -0.05200
C2456       C  0.53662636  0.30411912  0.95308021    -0.02300
C2457       C  0.00334374  0.30745513  0.95157082     0.02700
C2458       C  0.00002470  0.32666800  0.92981956    -0.05200
C2459       C  0.52938016  0.34136111  0.90931335    -0.02300
C2460       C  0.56121182  0.33629149  0.91170249     0.02700
C2461       C  0.54072968  0.28493723  0.97542353     0.37300
C2462       C  0.52605794  0.36138689  0.88702626     0.37300
C2463       C  0.58990194  0.34930551  0.89145405     0.35700
C2464       C  0.97305720  0.29117307  0.97101863     0.35700
N2465       N  0.61275532  0.35946955  0.87532794    -0.39100
N2466       N  0.94882934  0.27781348  0.98651044    -0.39100
N2467       N  0.52328905  0.37754553  0.86938875    -0.38500
N2468       N  0.54439954  0.26944613  0.99302552    -0.38500
C2469       C  0.63804488  0.24662987  0.92846027    -0.05200
C2470       C  0.62637232  0.22907934  0.90595264    -0.02300
C2471       C  0.62954512  0.19472199  0.90034952     0.02700
C2472       C  0.64534229  0.17854295  0.91692593    -0.05200
C2473       C  0.65859104  0.19722364  0.93894043    -0.02300
C2474       C  0.65449976  0.23088972  0.94484050     0.02700
C2475       C  0.61229694  0.24717747  0.88818013     0.37300
C2476       C  0.67510431  0.18077138  0.95595645     0.37300
C2477       C  0.66583930  0.24824003  0.96819898     0.35700
C2478       C  0.61648847  0.17592633  0.87754455     0.35700
N2479       N  0.67470645  0.26179159  0.98691139    -0.39100
N2480       N  0.60595729  0.16102027  0.85934988    -0.39100
N2481       N  0.68824984  0.16763515  0.96951921    -0.38500
N2482       N  0.60132870  0.26172985  0.87390383    -0.38500
C2483       C  0.77120997  0.47252567  0.93606923    -0.05200
C2484       C  0.74571290  0.45930072  0.95705786    -0.02300
C2485       C  0.71117167  0.42064945  0.95823865     0.02700
C2486       C  0.70320646  0.39479405  0.93883805    -0.05200
C2487       C  0.72894034  0.40821631  0.91789157    -0.02300
C2488       C  0.76254698  0.44734795  0.91636739     0.02700
C2489       C  0.75556063  0.48494119  0.97753860     0.37300
C2490       C  0.72076363  0.38213969  0.89767730     0.37300
C2491       C  0.78864180  0.46169739  0.89459212     0.35700
C2492       C  0.68442394  0.40692185  0.97961710     0.35700
N2493       N  0.80954080  0.47336191  0.87729960    -0.39100
N2494       N  0.66298148  0.39586997  0.99661946    -0.39100
N2495       N  0.71465475  0.36148281  0.88154268    -0.38500
N2496       N  0.76002945  0.00319142  0.99076646    -0.38500
C2497       C  0.68736219  0.04177462  0.08567339    -0.05200
C2498       C  0.72000397  0.03714787  0.08590196    -0.02300
C2499       C  0.75493735  0.06924287  0.09304786     0.02700
C2500       C  0.76110329  0.10952345  0.09380117    -0.05200
C2501       C  0.72881388  0.11510018  0.09275968    -0.02300
C2502       C  0.69181212  0.08072822  0.09025265     0.02700
C2503       C  0.71865103  0.49541963  0.07966531     0.37300
C2504       C  0.73256287  0.15547071  0.09463361     0.37300
C2505       C  0.65845556  0.08555451  0.09305906     0.35700
C2506       C  0.78196708  0.05910959  0.10324138     0.35700
N2507       N  0.63189225  0.08938768  0.09523564    -0.39100
N2508       N  0.80226564  0.05023649  0.11257664    -0.39100
N2509       N  0.73491234  0.18731828  0.09622034    -0.38500
N2510       N  0.71705980  0.46451798  0.07596553    -0.38500
C2511       C  0.84444444  0.25533695  0.09985681    -0.05200
C2512       C  0.83117168  0.26730140  0.07942292    -0.02300
C2513       C  0.82717623  0.30202574  0.07984813     0.02700
C2514       C  0.83795806  0.32567598  0.10025264    -0.05200
C2515       C  0.85273377  0.31486341  0.12028542    -0.02300
C2516       C  0.85563936  0.27911277  0.12020776     0.02700
C2517       C  0.82040458  0.24303408  0.05823290     0.37300
C2518       C  0.86370633  0.33990527  0.14103593     0.37300
C2519       C  0.86878400  0.26604503  0.14115091     0.35700
C2520       C  0.81037117  0.31240338  0.05976878     0.35700
N2521       N  0.87910198  0.25548344  0.15791150    -0.39100
N2522       N  0.79642861  0.32023354  0.04394488    -0.39100
N2523       N  0.87217576  0.36021754  0.15745275    -0.38500
N2524       N  0.81167940  0.22362011  0.04142078    -0.38500
C2525       C  0.97482598  0.18312408  0.07312842    -0.05200
C2526       C  0.94011365  0.14457993  0.07880216    -0.02300
C2527       C  0.90448565  0.14148743  0.07585633     0.02700
C2528       C  0.90256513  0.17779187  0.07274122    -0.05200
C2529       C  0.93675584  0.21557513  0.06483785    -0.02300
C2530       C  0.97269130  0.21797913  0.06459441     0.02700
C2531       C  0.94041520  0.10809109  0.08869094     0.37300
C2532       C  0.93494157  0.25162116  0.05600480     0.37300
C2533       C  0.00727742  0.25637357  0.05572340     0.35700
C2534       C  0.87154231  0.10132397  0.07221817     0.35700
N2535       N  0.53441009  0.28725476  0.04678289    -0.39100
N2536       N  0.84675606  0.06918363  0.06769703    -0.39100
N2537       N  0.93338851  0.28030048  0.04899916    -0.38500
N2538       N  0.94086480  0.07912693  0.09649776    -0.38500
C2539       C  0.57713269  0.71052763  0.09091121     0.03300
C2540       C  0.57916725  0.67667386  0.08178281    -0.12900
C2541       C  0.54785468  0.64654946  0.06938049     0.00800
C2542       C  0.01871375  0.65508524  0.06405156    -0.11400
C2543       C  0.01566123  0.68724083  0.07300232     0.03300
C2544       C  0.54340622  0.71204409  0.08851563    -0.10800
H2545       H  0.60420105  0.67389073  0.08428845     0.08900
H2546       H  0.99510766  0.63236386  0.05452484     0.06400
H2547       H  0.54023190  0.73569492  0.09698202     0.06200
C2548       C  0.79004403  0.88658110  0.10261396     0.03300
C2549       C  0.79684389  0.85371715  0.10522769    -0.12900
C2550       C  0.83152115  0.85832422  0.09692783     0.00800
C2551       C  0.86046436  0.89565638  0.08573199    -0.11400
C2552       C  0.85521604  0.92947324  0.08145920     0.03300
C2553       C  0.81915849  0.92500485  0.08991069    -0.10800
H2554       H  0.77494252  0.82402685  0.11416371     0.08900
H2555       H  0.88666647  0.89717637  0.07891736     0.06400
H2556       H  0.81437749  0.95076839  0.08731428     0.06200
C2557       C  0.58417554  0.97254959  0.06851974     0.03300
C2558       C  0.57455914  0.93409761  0.08093840    -0.12900
C2559       C  0.60278600  0.93144848  0.09404623     0.00800
C2560       C  0.63797746  0.96752330  0.09642291    -0.11400
C2561       C  0.64843381  0.00487458  0.08332524     0.03300
C2562       C  0.62164221  0.00668954  0.06873057    -0.10800
H2563       H  0.54642357  0.90686642  0.07978114     0.08900
H2564       H  0.65784926  0.96622751  0.10861411     0.06400
H2565       H  0.62968350  0.03504850  0.05771619     0.06200
C2566       C  0.86951049  0.67722786  0.08045294     0.80400
N2567       N  0.83377291  0.64255281  0.08126460    -0.77900
C2568       C  0.80248592  0.64339544  0.09054056     0.82800
N2569       N  0.80743638  0.67879900  0.09893779    -0.77900
C2570       C  0.84254159  0.71326932  0.09786998     0.82900
N2571       N  0.87335922  0.71248703  0.08859768    -0.79600
C2572       C  0.87773075  0.54328112  0.93654292     0.03300
C2573       C  0.84057219  0.50931990  0.94143247    -0.12900
C2574       C  0.80864523  0.51125630  0.93490366     0.00800
C2575       C  0.81311223  0.54734656  0.92325185    -0.11400
C2576       C  0.84985118  0.58158709  0.91675337     0.03300
C2577       C  0.88276050  0.57978691  0.92363397    -0.10800
H2578       H  0.83647661  0.98060366  0.94930599     0.08900
H2579       H  0.78779158  0.54713128  0.91714975     0.06400
H2580       H  0.91140692  0.60614433  0.91919491     0.06200
C2581       C  0.67200359  0.59658504  0.90696482     0.03300
C2582       C  0.63595814  0.55937569  0.91258125    -0.12900
C2583       C  0.60243662  0.56165133  0.91799949     0.00800
C2584       C  0.60547274  0.60058693  0.91633109    -0.11400
C2585       C  0.64096649  0.63685440  0.91267369     0.03300
C2586       C  0.67400842  0.63493097  0.90832171    -0.10800
H2587       H  0.63415185  0.52955992  0.91304833     0.08900
H2588       H  0.58057193  0.60337857  0.92069313     0.06400
H2589       H  0.70116511  0.66384333  0.90459290     0.06200
C2590       C  0.63477724  0.78371493  0.92860558     0.80400
N2591       N  0.66771074  0.81982501  0.93137864    -0.77900
C2592       C  0.66687957  0.85495517  0.93425579     0.82800
N2593       N  0.63309935  0.85406867  0.93416032    -0.77900
C2594       C  0.60004306  0.81806149  0.93149789     0.82900
N2595       N  0.60077925  0.78278880  0.92848328    -0.79600
C2596       C  0.90470098  0.80302430  0.90760838     0.03300
C2597       C  0.93656986  0.79950409  0.91263349    -0.12900
C2598       C  0.96560864  0.82834746  0.92588439     0.00800
C2599       C  0.96328590  0.86139617  0.93437849    -0.11400
C2600       C  0.93129887  0.86550549  0.93034768     0.03300
C2601       C  0.90136023  0.83583956  0.91690850    -0.10800
H2602       H  0.93956679  0.77482661  0.90540180     0.08900
H2603       H  0.98621031  0.88352123  0.94478370     0.06400
H2604       H  0.87644611  0.83847114  0.91356802     0.06200
Zr2605     Zr  0.98872223  0.00683618  0.04999119     2.17500
O2606       O  0.98143812  0.98781927  0.09371731    -0.51200
O2607       O  0.02003510  0.57677356  0.06605242    -0.74400
O2608       O  0.53255432  0.98496105  0.06330487    -0.81200
O2609       O  0.87939703  0.97909756  0.04642775    -0.82900
O2610       O  0.56560706  0.98130465  0.03009192    -0.78500
O2611       O  0.92196933  0.97226111  0.06930609    -0.90200
O2612       O  0.56167597  0.61964318  0.03554153    -0.76100
O2613       O  0.54115812  0.54466235  0.01971738    -0.85600
O2614       O  0.97505381  0.55432167  0.02905243    -0.85300
O2615       O  0.99022590  0.95776453  0.02362800    -0.72100
O2616       O  0.93195083  0.96689874  0.02903603    -0.84200
Zr2617     Zr  0.97502113  0.50623220  0.95229640     2.26400
Zr2618     Zr  0.54185257  0.49703888  0.99235951     2.06300
Zr2619     Zr  0.91817800  0.01409354  0.00790979     2.10000
Zr2620     Zr  0.52791464  0.59299039  0.99913608     1.78800
O2621       O  0.85001109  0.97366486  0.00084345    -0.93000
O2622       O  0.59602340  0.63826924  0.98674737    -0.40800
O2623       O  0.97181986  0.55387980  0.97892901    -0.77500
O2624       O  0.53077289  0.54751242  0.97185468    -0.96100
O2625       O  0.98546884  0.95713819  0.97384498    -0.89400
O2626       O  0.91979584  0.96631946  0.98074320    -0.92300
C2627       C  0.54549860  0.61120535  0.05699687     1.01500
C2628       C  0.88745572  0.96469422  0.06561410     1.14400
C2629       C  0.55807040  0.97853237  0.05313215     1.05200
O2630       O  0.61110700  0.54503426  0.99095850    -0.94400
O2631       O  0.57183397  0.51127896  0.95108595    -0.90200
O2632       O  0.53543822  0.52863738  0.92827250    -0.83300
C2633       C  0.56699815  0.52887638  0.93207248     1.11800
O2634       O  0.90424946  0.86773541  0.03803598    -0.96400
Zr2635     Zr  0.93231525  0.91867781  0.00296148     1.88900
O2636       O  0.95108742  0.93618508  0.93644512    -0.73100
O2637       O  0.54342434  0.93595850  0.98464586    -0.52300
O2638       O  0.95635529  0.87081869  0.00378729    -0.97000
O2639       O  0.86241719  0.88282155  0.00838494    -0.54200
O2640       O  0.91271344  0.88510597  0.96547279    -0.73600
C2641       C  0.92942494  0.89751073  0.94409234     0.98800
O2642       O  0.47908184  0.52864662  0.90783846    -0.62400
O2643       O  0.91091507  0.56906481  0.02388554    -0.57200
O2644       O  0.92662105  0.52472123  0.93946882    -0.93900
O2645       O  0.90646627  0.54469228  0.97249742    -0.92300
O2646       O  0.00518444  0.64090403  0.00868585    -0.92700
O2647       O  0.54648390  0.64565901  0.96538738    -0.91500
C2648       C  0.90742991  0.53966379  0.94969604     1.17600
H2649       H  0.97054842  0.57090219  0.03995017     0.33500
H2650       H  0.55292110  0.56738374  0.96152961     0.44400
H2651       H  0.89628685  0.95210529  0.97248605     0.37900
H2652       H  0.99373553  0.93750603  0.03284761     0.34400
H2653       H  0.60425666  0.66398434  0.99509534     0.26200
H2654       H  0.57105041  0.94474982  0.98386425     0.32100
H2655       H  0.93836628  0.84736865  0.99456544     0.38000
H2656       H  0.02877377  0.66837243  0.00939552     0.32500
H2657       H  0.88668443  0.56499613  0.01760493     0.31400
H2658       H  0.84044817  0.99310391  0.00237916     0.33100
H2659       H  0.85338613  0.88099763  0.99174781     0.32000
H2660       H  0.53994053  0.62998598  0.95061867     0.36000
H2661       H  0.95647913  0.50985353  0.90257896     0.28800
H2662       H  0.00746121  0.00440816  0.09966542     0.33000
H2663       H  0.89096993  0.84028500  0.03120196     0.35800
H2664       H  0.90485786  0.56163122  0.04164797     0.28500
H2665       H  0.48146931  0.55627835  0.90742558     0.41300
H2666       H  0.61560862  0.55866223  0.00644653     0.31400
H2667       H  0.60884804  0.62497507  0.99497678     0.39000
H2668       H  0.85690449  0.90287402  0.01584656     0.30800
H2669       H  0.53232857  0.91698260  0.99964123     0.30900
H2670       H  0.97571614  0.95877830  0.09517417     0.31200
C2671       C  0.74468171  0.80342027  0.72695846     0.03300
C2672       C  0.78238775  0.83473471  0.72010019    -0.12900
C2673       C  0.81344465  0.83097395  0.72616824     0.00800
C2674       C  0.80754518  0.79535943  0.73936214    -0.11400
C2675       C  0.77041991  0.76409248  0.74813919     0.03300
C2676       C  0.73829097  0.76800877  0.74188067    -0.10800
H2677       H  0.78779809  0.86280455  0.70971786     0.08900
H2678       H  0.83244507  0.79405723  0.74483785     0.06400
H2679       H  0.70932142  0.74401444  0.74815592     0.06200
C2680       C  0.71249435  0.53928447  0.76213651     0.03300
C2681       C  0.71660211  0.50594568  0.75461359    -0.12900
C2682       C  0.69267684  0.97939512  0.73898669     0.00800
C2683       C  0.66097155  0.98316930  0.73333824    -0.11400
C2684       C  0.65299880  0.51254570  0.74209531     0.03300
C2685       C  0.68085079  0.54217400  0.75563035    -0.10800
H2686       H  0.74136925  0.50383735  0.75926248     0.08900
H2687       H  0.63916333  0.96126983  0.72247415     0.06400
H2688       H  0.67734608  0.56724244  0.76163327     0.06200
C2689       C  0.94555336  0.73502928  0.76239922     0.03300
C2690       C  0.94163823  0.69630910  0.75838421    -0.12900
C2691       C  0.97276638  0.69394565  0.74897958     0.00800
C2692       C  0.50885653  0.73072456  0.74199152    -0.11400
C2693       C  0.51314651  0.76978139  0.74417884     0.03300
C2694       C  0.98119861  0.77188301  0.75545750    -0.10800
H2695       H  0.91456538  0.66771210  0.76308549     0.08900
H2696       H  0.53208549  0.72810668  0.73354810     0.06400
H2697       H  0.98424133  0.80198032  0.75730576     0.06200
C2698       C  0.98295459  0.55567280  0.71819522     0.80400
N2699       N  0.51766432  0.55607575  0.72117690    -0.77900
C2700       C  0.51999186  0.52210271  0.71677186     0.82800
N2701       N  0.98879002  0.98806026  0.71079221    -0.77900
C2702       C  0.95473545  0.98647471  0.71088168     0.82900
N2703       N  0.95096335  0.51984282  0.71363564    -0.79600
Zr2704     Zr  0.81079871  0.67303337  0.78475222     2.17500
O2705       O  0.82484785  0.67017222  0.74163638    -0.51200
O2706       O  0.78900125  0.71626478  0.76294415    -0.74400
O2707       O  0.76499807  0.60534411  0.76974638    -0.81200
O2708       O  0.91805440  0.75531035  0.79409880    -0.82900
O2709       O  0.72586082  0.56076223  0.80153193    -0.78500
O2710       O  0.87856198  0.70571066  0.76977356    -0.90200
O2711       O  0.75438240  0.73278282  0.78840486    -0.76100
O2712       O  0.75369063  0.65409274  0.80907273    -0.85600
O2713       O  0.82532955  0.73452889  0.80419217    -0.85300
O2714       O  0.80068348  0.61621679  0.81308020    -0.72100
O2715       O  0.86179309  0.68744417  0.81066939    -0.84200
Zr2716     Zr  0.80649874  0.67195928  0.88293048     2.26400
Zr2717     Zr  0.74353418  0.59824974  0.83793993     2.06300
Zr2718     Zr  0.87640168  0.74834911  0.83005241     2.10000
Zr2719     Zr  0.76806167  0.71558882  0.82841906     1.78800
O2720       O  0.94451076  0.78053626  0.83697016    -0.93000
O2721       O  0.69865660  0.68661476  0.82819154    -0.40800
O2722       O  0.81910654  0.72984367  0.85466328    -0.77500
O2723       O  0.75554875  0.65970943  0.85670353    -0.96100
O2724       O  0.79522618  0.61228555  0.86325524    -0.89400
O2725       O  0.86487757  0.69246948  0.85923804    -0.92300
C2726       C  0.76920540  0.73386034  0.76729740     1.01500
C2727       C  0.91222676  0.73388862  0.77543123     1.14400
C2728       C  0.73725118  0.56981137  0.77886127     1.05200
O2729       O  0.67559806  0.56844698  0.83123892    -0.94400
O2730       O  0.70225764  0.58025485  0.87555341    -0.90200
O2731       O  0.73970229  0.62867757  0.90119634    -0.83300
C2732       C  0.70680124  0.59921538  0.89508696     1.11800
O2733       O  0.87893682  0.60780581  0.80785735    -0.96400
Zr2734     Zr  0.85291910  0.63288536  0.83885010     1.88900
O2735       O  0.82724515  0.62646582  0.90301646    -0.73100
O2736       O  0.73604265  0.53183970  0.85219140    -0.52300
O2737       O  0.82467510  0.55788982  0.84411380    -0.97000
O2738       O  0.92305750  0.66875871  0.83452454    -0.54200
O2739       O  0.87046427  0.62103701  0.87873290    -0.73600
C2740       C  0.85094252  0.61353005  0.89898600     0.98800
O2741       O  0.80120586  0.68551162  0.92536185    -0.62400
O2742       O  0.88795959  0.81625889  0.81501532    -0.57200
O2743       O  0.85015711  0.73888421  0.89912663    -0.93900
O2744       O  0.89173335  0.78264116  0.86787948    -0.92300
O2745       O  0.79891645  0.79088410  0.82621829    -0.92700
O2746       O  0.74249636  0.73656672  0.86204424    -0.91500
C2747       C  0.87916600  0.77379803  0.89040862     1.17600
H2748       H  0.83316584  0.75833930  0.79282651     0.33500
H2749       H  0.73283038  0.65676359  0.86484587     0.44400
H2750       H  0.88609154  0.70109534  0.86956733     0.37900
H2751       H  0.79766018  0.59302021  0.80452697     0.34400
H2752       H  0.69058659  0.66784266  0.81480340     0.26200
H2753       H  0.73625030  0.53206185  0.87017853     0.32100
H2754       H  0.81293670  0.54984608  0.86104256     0.38000
H2755       H  0.78053505  0.79687435  0.81820992     0.32500
H2756       H  0.90399834  0.83540499  0.82707327     0.31400
H2757       H  0.95535615  0.81051950  0.83256700     0.33100
H2758       H  0.93184665  0.68500259  0.84899774     0.32000
H2759       H  0.73178030  0.75259302  0.85436356     0.36000
H2760       H  0.77971232  0.69095634  0.92662331     0.28800
H2761       H  0.80100382  0.66338862  0.73361679     0.33000
H2762       H  0.89157396  0.59501522  0.81688201     0.35800
H2763       H  0.90558730  0.82405345  0.80023188     0.28500
H2764       H  0.79155530  0.65853718  0.93484715     0.41300
H2765       H  0.67100930  0.59188243  0.83210770     0.31400
H2766       H  0.68741148  0.66772641  0.84321831     0.39000
H2767       H  0.93055630  0.68991224  0.82068544     0.30800
H2768       H  0.70912945  0.51113502  0.84922630     0.30900
H2769       H  0.82710986  0.64520260  0.74069752     0.31200
C2770       C  0.54340361  0.64058199  0.57610706     0.03300
C2771       C  0.57612060  0.63764480  0.57980874    -0.12900
C2772       C  0.60830737  0.66981816  0.58944655     0.00800
C2773       C  0.60776352  0.70464846  0.59629379    -0.11400
C2774       C  0.57545269  0.70834838  0.59391938     0.03300
C2775       C  0.54278767  0.67617461  0.58351909    -0.10800
H2776       H  0.57765591  0.61149138  0.57363131     0.08900
H2777       H  0.63272853  0.72872991  0.60441655     0.06400
H2778       H  0.51769181  0.67887332  0.58109228     0.06200
C2779       C  0.53701407  0.88686478  0.60230542     0.03300
C2780       C  0.49937098  0.85286409  0.60448812    -0.12900
C2781       C  0.46930906  0.85644827  0.59584081     0.00800
C2782       C  0.47647828  0.89425377  0.58520489    -0.11400
C2783       C  0.51409321  0.92884981  0.58208839     0.03300
C2784       C  0.54492536  0.92508713  0.59050445    -0.10800
H2785       H  0.49326810  0.82344864  0.61336086     0.08900
H2786       H  0.95427679  0.89519022  0.57664287     0.06400
H2787       H  0.57404279  0.95141453  0.58852247     0.06200
C2788       C  0.82828531  0.96103202  0.56710085     0.03300
C2789       C  0.82659881  0.99630168  0.57172965    -0.12900
C2790       C  0.79299627  0.99264461  0.58163795     0.00800
C2791       C  0.76057375  0.95377960  0.58697324    -0.11400
C2792       C  0.76156919  0.91735198  0.58448621     0.03300
C2793       C  0.79603532  0.92082678  0.57432857    -0.10800
H2794       H  0.84649289  0.52549491  0.56355787     0.08900
H2795       H  0.73485706  0.95238562  0.59460918     0.06400
H2796       H  0.79749887  0.89325464  0.57172934     0.06200
C2797       C  0.75115726  0.67402287  0.60146141     0.80400
N2798       N  0.78520397  0.71009421  0.60273710    -0.77900
C2799       C  0.81874206  0.71006281  0.60110652     0.82800
N2800       N  0.81810380  0.67418641  0.59800466    -0.77900
C2801       C  0.78428011  0.63824677  0.59697156     0.82900
N2802       N  0.75096063  0.63834491  0.59855683    -0.79600
Zr2803     Zr  0.64676324  0.84067075  0.71494223     2.17500
O2804       O  0.64132322  0.82167595  0.75857193    -0.51200
O2805       O  0.67163440  0.90797286  0.73395309    -0.74400
O2806       O  0.69180234  0.81646917  0.72639089    -0.81200
O2807       O  0.54378171  0.82706239  0.71466231    -0.82900
O2808       O  0.72077145  0.81284844  0.69113531    -0.78500
O2809       O  0.57991893  0.80434636  0.73311577    -0.90200
O2810       O  0.71519949  0.95736746  0.70632883    -0.76100
O2811       O  0.70032730  0.88164006  0.68602645    -0.85600
O2812       O  0.63425115  0.89069301  0.69557464    -0.85300
O2813       O  0.64613763  0.79363571  0.68600071    -0.72100
O2814       O  0.58956406  0.80431260  0.69346588    -0.84200
Zr2815     Zr  0.63222068  0.84952842  0.61697538     2.26400
Zr2816     Zr  0.69930295  0.83544127  0.65653923     2.06300
Zr2817     Zr  0.57765710  0.85477859  0.67441557     2.10000
Zr2818     Zr  0.68810531  0.93264344  0.66775296     1.78800
O2819       O  0.50812076  0.81315095  0.67253489    -0.93000
O2820       O  0.75716861  0.97379403  0.65706320    -0.40800
O2821       O  0.63127697  0.89616247  0.64563610    -0.77500
O2822       O  0.68906652  0.88837303  0.63900396    -0.96100
O2823       O  0.64160433  0.79734674  0.63597630    -0.89400
O2824       O  0.57764286  0.80927168  0.64525724    -0.92300
C2825       C  0.69570340  0.94642086  0.72683567     1.01500
C2826       C  0.54822538  0.80461513  0.73109223     1.14400
C2827       C  0.71557154  0.80917772  0.71445407     1.05200
O2828       O  0.76907823  0.87223191  0.65730341    -0.94400
O2829       O  0.73479722  0.86368943  0.61640154    -0.90200
O2830       O  0.69463231  0.87508189  0.59356750    -0.83300
C2831       C  0.72802525  0.87987268  0.59743617     1.11800
O2832       O  0.56392837  0.70065846  0.69638910    -0.96400
Zr2833     Zr  0.58786820  0.75808436  0.66499315     1.88900
O2834       O  0.60426956  0.78053686  0.59998446    -0.73100
O2835       O  0.69532527  0.77296419  0.64230319    -0.52300
O2836       O  0.60750103  0.70798670  0.65693156    -0.97000
O2837       O  0.51953344  0.72505587  0.67731500    -0.54200
O2838       O  0.55801304  0.73326521  0.62724376    -0.73600
C2839       C  0.57699376  0.74304854  0.60665601     0.98800
O2840       O  0.63217348  0.87505058  0.57530892    -0.62400
O2841       O  0.57540290  0.91474291  0.68757475    -0.57200
O2842       O  0.58709322  0.87152529  0.60474544    -0.93900
O2843       O  0.55978354  0.88012670  0.63917449    -0.92300
O2844       O  0.66649044  0.98089171  0.67617533    -0.92700
O2845       O  0.70819672  0.98755803  0.63518678    -0.91500
C2846       C  0.56464174  0.88116417  0.61598635     1.17600
H2847       H  0.62872801  0.90605402  0.70675373     0.33500
H2848       H  0.71114383  0.90952399  0.62931372     0.44400
H2849       H  0.55397801  0.79696801  0.63706688     0.37900
H2850       H  0.64875788  0.77193525  0.69417994     0.34400
H2851       H  0.76553694  0.00119674  0.66333933     0.26200
H2852       H  0.70310372  0.77956284  0.62464185     0.32100
H2853       H  0.58546771  0.68522876  0.64942909     0.38000
H2854       H  0.68996899  0.00661517  0.68003847     0.32500
H2855       H  0.55158147  0.91181371  0.68127442     0.31400
H2856       H  0.99665756  0.82510944  0.68362991     0.33100
H2857       H  0.50662782  0.72253741  0.66199749     0.32000
H2858       H  0.69164331  0.97372731  0.62178143     0.36000
H2859       H  0.65461309  0.90371314  0.57323433     0.28800
H2860       H  0.66772299  0.83784937  0.76404134     0.33000
H2861       H  0.54499583  0.67551910  0.68872184     0.35800
H2862       H  0.56980952  0.90953398  0.70547997     0.28500
H2863       H  0.63897613  0.85886840  0.56469746     0.41300
H2864       H  0.77584276  0.89846090  0.66463351     0.31400
H2865       H  0.76836610  0.96137313  0.66783899     0.39000
H2866       H  0.51682293  0.74619386  0.68575682     0.30800
H2867       H  0.71684337  0.77179635  0.64956253     0.30900
H2868       H  0.63501077  0.79243138  0.75992794     0.31200
C2869       C  0.90195116  0.86911065  0.42769402     0.03300
C2870       C  0.90189287  0.83285286  0.42123854    -0.12900
C2871       C  0.86713812  0.79779528  0.41504619     0.00800
C2872       C  0.83332026  0.79917099  0.41646430    -0.11400
C2873       C  0.83407047  0.83577921  0.42056282     0.03300
C2874       C  0.86813365  0.87054045  0.42620260    -0.10800
H2875       H  0.92826461  0.83203583  0.42090430     0.08900
H2876       H  0.80663774  0.77302929  0.41150878     0.06400
H2877       H  0.86779565  0.89833165  0.43022565     0.06200
C2878       C  0.90774737  0.62833316  0.39569396     0.03300
C2879       C  0.94627737  0.65967333  0.39115310    -0.12900
C2880       C  0.97553055  0.65552417  0.40060650     0.00800
C2881       C  0.96705282  0.61945450  0.41406361    -0.11400
C2882       C  0.92895979  0.58700409  0.41923578     0.03300
C2883       C  0.89853447  0.59175384  0.41050414    -0.10800
H2884       H  0.95370731  0.68828658  0.38058099     0.08900
H2885       H  0.99069769  0.61785695  0.42167786     0.06400
H2886       H  0.86885959  0.56727696  0.41436774     0.06200
C2887       C  0.61200101  0.53943020  0.43304366     0.03300
C2888       C  0.61482881  0.50453175  0.42924879    -0.12900
C2889       C  0.64781776  0.50899025  0.41766696     0.00800
C2890       C  0.67859506  0.54800207  0.41022276    -0.11400
C2891       C  0.67669422  0.58374390  0.41304578     0.03300
C2892       C  0.64271608  0.57962348  0.42434458    -0.10800
H2893       H  0.59143637  0.47373837  0.43558981     0.08900
H2894       H  0.70369623  0.55009709  0.40092930     0.06400
H2895       H  0.64057617  0.60683392  0.42681840     0.06200
C2896       C  0.69505126  0.83274813  0.39793599     0.80400
N2897       N  0.69546156  0.86914337  0.39688176    -0.77900
C2898       C  0.66272992  0.86956872  0.39348932     0.82800
N2899       N  0.62954654  0.83357068  0.39165958    -0.77900
C2900       C  0.62863976  0.79704592  0.39314808     0.82900
N2901       N  0.66142421  0.79646356  0.39643285    -0.79600
Zr2902     Zr  0.98066938  0.50540794  0.45063304     2.17500
O2903       O  0.49564437  0.52014930  0.40767174    -0.51200
O2904       O  0.94456157  0.94112522  0.43264060    -0.74400
O2905       O  0.54886737  0.52869617  0.43830893    -0.81200
O2906       O  0.90043382  0.53757343  0.45406664    -0.82900
O2907       O  0.57918611  0.52391754  0.47138240    -0.78500
O2908       O  0.95204519  0.54358284  0.43231982    -0.90200
O2909       O  0.94156545  0.89364396  0.46040250    -0.76100
O2910       O  0.99215863  0.96246951  0.47785181    -0.85600
O2911       O  0.92151472  0.96393260  0.47054595    -0.85300
O2912       O  0.52814021  0.55157126  0.47947936    -0.72100
O2913       O  0.96308085  0.54757928  0.47229551    -0.84200
Zr2914     Zr  0.96095235  0.00335809  0.54790117     2.26400
Zr2915     Zr  0.53652683  0.50620429  0.50770177     2.06300
Zr2916     Zr  0.90159957  0.50307877  0.49284420     2.10000
Zr2917     Zr  0.92968276  0.91800276  0.49760539     1.78800
O2918       O  0.88010532  0.55175092  0.50047881    -0.93000
O2919       O  0.94695969  0.86703329  0.51076845    -0.40800
O2920       O  0.91404043  0.96101993  0.52018846    -0.77500
O2921       O  0.97492245  0.95797898  0.52568963    -0.96100
O2922       O  0.51957285  0.54966471  0.52860720    -0.89400
O2923       O  0.94717298  0.54706608  0.52070095    -0.92300
C2924       C  0.93330350  0.90324437  0.43994446     1.01500
C2925       C  0.92497095  0.55197307  0.43548759     1.14400
C2926       C  0.57823054  0.53155476  0.44850063     1.05200
O2927       O  0.56602515  0.96371079  0.50450499    -0.94400
O2928       O  0.54071997  0.97729251  0.54731057    -0.90200
O2929       O  0.49138718  0.97311809  0.57101876    -0.83300
C2930       C  0.51816031  0.96469741  0.56688818     1.11800
O2931       O  0.53809070  0.64167294  0.46481893    -0.96400
Zr2932     Zr  0.50845877  0.59282455  0.50077872     1.88900
O2933       O  0.99923916  0.57177482  0.56507891    -0.73100
O2934       O  0.59503361  0.56445272  0.52104715    -0.52300
O2935       O  0.57661917  0.64163480  0.50447999    -0.97000
O2936       O  0.47644127  0.63250478  0.49452395    -0.54200
O2937       O  0.51429662  0.62434040  0.53882995    -0.73600
C2938       C  0.51549834  0.61001886  0.56010671     0.98800
O2939       O  0.93775812  0.98680262  0.59081252    -0.62400
O2940       O  0.84426227  0.95764246  0.47689796    -0.57200
O2941       O  0.89359972  0.97845265  0.56168901    -0.93900
O2942       O  0.85637798  0.47072840  0.52818316    -0.92300
O2943       O  0.86467139  0.87695146  0.48443692    -0.92700
O2944       O  0.88535713  0.86581210  0.52912573    -0.91500
C2945       C  0.85921236  0.46797450  0.55125323     1.17600
H2946       H  0.90185425  0.94952214  0.45939800     0.33500
H2947       H  0.97355855  0.93528326  0.53548650     0.44400
H2948       H  0.93776646  0.56207227  0.52956550     0.37900
H2949       H  0.55224301  0.57188344  0.47092734     0.34400
H2950       H  0.93120686  0.84273614  0.50141617     0.26200
H2951       H  0.59148103  0.56160376  0.53908229     0.32100
H2952       H  0.58259848  0.63270735  0.52013801     0.38000
H2953       H  0.86164711  0.84967410  0.48145611     0.32500
H2954       H  0.82621298  0.96650507  0.48246324     0.31400
H2955       H  0.85299029  0.53430958  0.50699828     0.33100
H2956       H  0.46284311  0.62996324  0.51039161     0.32000
H2957       H  0.89316052  0.87953545  0.54453866     0.36000
H2958       H  0.93156671  0.95789693  0.59466527     0.28800
H2959       H  0.50542111  0.50201953  0.40265041     0.33000
H2960       H  0.54353140  0.66886326  0.47011433     0.35800
H2961       H  0.84797818  0.96438471  0.45902049     0.28500
H2962       H  0.96063905  0.00397375  0.59991953     0.41300
H2963       H  0.54655128  0.93874659  0.49698579     0.31400
H2964       H  0.97360681  0.87858708  0.50372861     0.39000
H2965       H  0.95696988  0.61753064  0.48088673     0.30800
H2966       H  0.61525334  0.55765841  0.51743078     0.30900
H2967       H  0.51790418  0.54882498  0.40487679     0.31200
C2968       C  0.71060637  0.97924589  0.24090871     0.03300
C2969       C  0.70845475  0.51328780  0.25152671    -0.12900
C2970       C  0.74290847  0.54789356  0.25869474     0.00800
C2971       C  0.77712815  0.54734260  0.25654739    -0.11400
C2972       C  0.77755158  0.51277756  0.24897825     0.03300
C2973       C  0.74525920  0.97932448  0.24073257    -0.10800
H2974       H  0.68175038  0.51340850  0.25266020     0.08900
H2975       H  0.80337017  0.57273660  0.26271818     0.06400
H2976       H  0.74657663  0.95296847  0.23469103     0.06200
C2977       C  0.70448134  0.72463194  0.27513657     0.03300
C2978       C  0.66604313  0.69225265  0.27746950    -0.12900
C2979       C  0.63759847  0.69651817  0.26672160     0.00800
C2980       C  0.64695097  0.73389069  0.25445730    -0.11400
C2981       C  0.68514762  0.76725053  0.25149567     0.03300
C2982       C  0.71468361  0.76238276  0.26141760    -0.10800
H2983       H  0.65826278  0.66280863  0.28713073     0.08900
H2984       H  0.62418478  0.73590136  0.24580327     0.06400
H2985       H  0.74438180  0.78741274  0.25909566     0.06200
C2986       C  0.49650409  0.79875970  0.23638670     0.03300
C2987       C  0.49471249  0.83434791  0.24009267    -0.12900
C2988       C  0.95854188  0.83328234  0.24469509     0.00800
C2989       C  0.92748396  0.79526094  0.25383820    -0.11400
C2990       C  0.92907419  0.75872173  0.25380300     0.03300
C2991       C  0.96308165  0.76113112  0.24367699    -0.10800
H2992       H  0.51885242  0.86482376  0.23397965     0.08900
H2993       H  0.90256704  0.79472851  0.26223562     0.06400
H2994       H  0.96514478  0.73350263  0.24345176     0.06200
C2995       C  0.92001633  0.51518795  0.25731930     0.80400
N2996       N  0.95349905  0.55089820  0.26023929    -0.77900
C2997       C  0.48793044  0.54992145  0.26149165     0.82800
N2998       N  0.48660665  0.51302987  0.26231202    -0.77900
C2999       C  0.95542147  0.98326861  0.25354386     0.82900
N3000       N  0.92262199  0.98402996  0.25157501    -0.79600
Zr3001     Zr  0.65578741  0.84741078  0.11957473     2.17500
O3002       O  0.67325985  0.86511831  0.07590098    -0.51200
O3003       O  0.61902012  0.78038269  0.10056486    -0.74400
O3004       O  0.72454285  0.87325151  0.10610234    -0.81200
O3005       O  0.57287693  0.87572257  0.12476991    -0.82900
O3006       O  0.75428928  0.87066510  0.14000884    -0.78500
O3007       O  0.62707235  0.88755579  0.10318253    -0.90200
O3008       O  0.60720968  0.72752341  0.12790950    -0.76100
O3009       O  0.66583343  0.80275518  0.14685840    -0.85600
O3010       O  0.59329400  0.79927309  0.13906783    -0.85300
O3011       O  0.69975154  0.89176831  0.14835368    -0.72100
O3012       O  0.63425793  0.88509591  0.14257559    -0.84200
Zr3013     Zr  0.62904573  0.83897233  0.21742932     2.26400
Zr3014     Zr  0.70916782  0.84627953  0.17586993     2.06300
Zr3015     Zr  0.57248244  0.83750461  0.16224757     2.10000
Zr3016     Zr  0.60349573  0.75498592  0.16613100     1.78800
O3017       O  0.54173494  0.87782285  0.16945115    -0.93000
O3018       O  0.62887007  0.70992601  0.17637091    -0.40800
O3019       O  0.58337310  0.79376474  0.18972332    -0.77500
O3020       O  0.64660791  0.79682283  0.19459579    -0.96100
O3021       O  0.68974511  0.88743083  0.19725135    -0.89400
O3022       O  0.61602470  0.88178397  0.19085519    -0.92300
C3023       C  0.60506060  0.74136565  0.10672452     1.01500
C3024       C  0.59862363  0.89375804  0.10696575     1.14400
C3025       C  0.75441574  0.87830287  0.11692263     1.05200
O3026       O  0.74050643  0.80591365  0.17140051    -0.94400
O3027       O  0.71154654  0.81388809  0.21553644    -0.90200
O3028       O  0.66417382  0.81252196  0.23992761    -0.83300
C3029       C  0.69012945  0.80297960  0.23559832     1.11800
O3030       O  0.71380760  0.98522873  0.13831371    -0.96400
Zr3031     Zr  0.67676037  0.92986950  0.17018022     1.88900
O3032       O  0.66905992  0.90750705  0.23420568    -0.73100
O3033       O  0.76587422  0.90282534  0.19197246    -0.52300
O3034       O  0.74144620  0.98129755  0.18014128    -0.97000
O3035       O  0.64154742  0.96387171  0.15788003    -0.54200
O3036       O  0.67114347  0.95656641  0.20803985    -0.73600
C3037       C  0.67957617  0.94565362  0.22801812     0.98800
O3038       O  0.61286226  0.81747268  0.26091942    -0.62400
O3039       O  0.51411273  0.78354404  0.14588646    -0.57200
O3040       O  0.56220576  0.81720377  0.23111384    -0.93900
O3041       O  0.52731451  0.80749418  0.19791350    -0.92300
O3042       O  0.53692002  0.70957032  0.15679782    -0.92700
O3043       O  0.56562894  0.70185110  0.19902965    -0.91500
C3044       C  0.53042965  0.80617598  0.22101825     1.17600
H3045       H  0.57414568  0.78410706  0.12777357     0.33500
H3046       H  0.64592681  0.77462047  0.20450123     0.44400
H3047       H  0.60500749  0.89528621  0.19972216     0.37900
H3048       H  0.72369324  0.91325170  0.14019318     0.34400
H3049       H  0.60964103  0.68239565  0.17119313     0.26200
H3050       H  0.78188087  0.89073016  0.19627298     0.32100
H3051       H  0.75869142  0.97436284  0.17104250     0.38000
H3052       H  0.52204834  0.71857024  0.16676767     0.32500
H3053       H  0.49314124  0.78698646  0.15290156     0.31400
H3054       H  0.51559901  0.86112224  0.16368268     0.33100
H3055       H  0.64168244  0.97951473  0.17186685     0.32000
H3056       H  0.56903586  0.71738180  0.21367042     0.36000
H3057       H  0.60394429  0.83543142  0.26754576     0.28800
H3058       H  0.67804228  0.84336884  0.07029454     0.33000
H3059       H  0.71596584  0.01056544  0.14457425     0.35800
H3060       H  0.51646314  0.79237354  0.12834040     0.28500
H3061       H  0.58987088  0.78918214  0.26210514     0.41300
H3062       H  0.72686075  0.78710152  0.15858347     0.31400
H3063       H  0.65148992  0.71969682  0.16469238     0.39000
H3064       H  0.61443510  0.94125720  0.15763928     0.30800
H3065       H  0.78017086  0.92255996  0.17763417     0.30900
H3066       H  0.64924020  0.85931142  0.06845988     0.31200
Zr3067     Zr  0.80959934  0.66305878  0.38467448     2.17500
O3068       O  0.80591800  0.63472847  0.42622870    -0.51200
O3069       O  0.83738840  0.72644965  0.40701354    -0.74400
O3070       O  0.85309992  0.63738623  0.39501668    -0.81200
O3071       O  0.70276203  0.64208068  0.38398775    -0.82900
O3072       O  0.88866162  0.64625759  0.35981980    -0.78500
O3073       O  0.74313984  0.62640648  0.40327245    -0.90200
O3074       O  0.88344990  0.77443800  0.38034983    -0.76100
O3075       O  0.86423430  0.70874493  0.35753466    -0.85600
O3076       O  0.79658175  0.71524080  0.36920311    -0.85300
O3077       O  0.81269349  0.62205288  0.35298598    -0.72100
O3078       O  0.75329734  0.62916735  0.36230438    -0.84200
Zr3079     Zr  0.79912383  0.68585758  0.28774597     2.26400
Zr3080     Zr  0.86656783  0.66895555  0.32515428     2.06300
Zr3081     Zr  0.74088982  0.68123729  0.34639884     2.10000
Zr3082     Zr  0.85132040  0.76077374  0.34260312     1.78800
O3083       O  0.67140826  0.64300543  0.34358136    -0.93000
O3084       O  0.91954888  0.80411360  0.33015539    -0.40800
O3085       O  0.79549137  0.72711464  0.31920739    -0.77500
O3086       O  0.85529385  0.72306690  0.31062665    -0.96100
O3087       O  0.80966019  0.63262335  0.30362030    -0.89400
O3088       O  0.74381301  0.64100200  0.31469319    -0.92300
C3089       C  0.86480846  0.76394574  0.40106786     1.01500
C3090       C  0.70962730  0.62199513  0.40067316     1.14400
C3091       C  0.88024896  0.63621852  0.38283725     1.05200
O3092       O  0.93596864  0.69923750  0.32503610    -0.94400
O3093       O  0.90410025  0.70612335  0.28665654    -0.90200
O3094       O  0.86245089  0.71608703  0.26459125    -0.83300
C3095       C  0.89638584  0.72209565  0.26801420     1.11800
O3096       O  0.73610758  0.52841723  0.35999597    -0.96400
Zr3097     Zr  0.75521148  0.58850157  0.33132261     1.88900
O3098       O  0.77242121  0.61890887  0.26823617    -0.73100
O3099       O  0.86190698  0.60953250  0.30605036    -0.52300
O3100       O  0.77779297  0.54345830  0.31733433    -0.97000
O3101       O  0.68700517  0.54818520  0.34450939    -0.54200
O3102       O  0.72467100  0.56911057  0.29349992    -0.73600
C3103       C  0.74471134  0.58098595  0.27330721     0.98800
O3104       O  0.79773883  0.71211257  0.24653822    -0.62400
O3105       O  0.73639810  0.73669659  0.36457552    -0.57200
O3106       O  0.75648039  0.71190233  0.27672906    -0.93900
O3107       O  0.72274283  0.70820070  0.31170890    -0.92300
O3108       O  0.83112905  0.80617854  0.35906319    -0.92700
O3109       O  0.86937542  0.82226706  0.31560444    -0.91500
C3110       C  0.73101508  0.71629851  0.28861811     1.17600
H3111       H  0.79149719  0.72910701  0.38177472     0.33500
H3112       H  0.87680302  0.74628848  0.30154163     0.44400
H3113       H  0.72053063  0.62961570  0.30612277     0.37900
H3114       H  0.81594327  0.59990293  0.35977877     0.34400
H3115       H  0.93061310  0.82368570  0.34301999     0.26200
H3116       H  0.87208667  0.61988981  0.28894073     0.32100
H3117       H  0.75538663  0.52045243  0.31025973     0.38000
H3118       H  0.85512662  0.82969003  0.36436632     0.32500
H3119       H  0.74147353  0.75714406  0.35074789     0.31400
H3120       H  0.66551535  0.61625924  0.33732827     0.33100
H3121       H  0.67339867  0.54884629  0.33003842     0.32000
H3122       H  0.85747098  0.81126479  0.30020847     0.36000
H3123       H  0.81963727  0.74110874  0.24462304     0.28800
H3124       H  0.79358242  0.64626776  0.43648436     0.33000
H3125       H  0.71884866  0.50370846  0.35135927     0.35800
H3126       H  0.70871089  0.72430274  0.36946561     0.28500
H3127       H  0.80513594  0.69682807  0.23556591     0.41300
H3128       H  0.94528783  0.72591244  0.33248880     0.31400
H3129       H  0.92999984  0.78544934  0.33233205     0.39000
H3130       H  0.68290133  0.56532310  0.35593879     0.30800
H3131       H  0.88168703  0.60522534  0.31346032     0.30900
H3132       H  0.78665881  0.60470478  0.42648120     0.31200
C3133       C  0.95744822  0.87152319  0.24698411    -0.05200
C3134       C  0.47245374  0.88994874  0.27503474    -0.02300
C3135       C  0.46882063  0.92467586  0.27851680     0.02700
C3136       C  0.95534870  0.94443688  0.25154105    -0.05200
C3137       C  0.94307409  0.92298593  0.23025235    -0.02300
C3138       C  0.94474016  0.88685025  0.22783867     0.02700
C3139       C  0.49043154  0.87687688  0.29294861     0.37300
C3140       C  0.92958973  0.93855349  0.21060424     0.37300
C3141       C  0.93418501  0.86581757  0.20551592     0.35700
C3142       C  0.48040301  0.94545802  0.30089407     0.35700
N3143       N  0.92613444  0.84906550  0.18768987    -0.39100
N3144       N  0.48948712  0.96178053  0.31882245    -0.39100
N3145       N  0.91860979  0.95084586  0.19502342    -0.38500
N3146       N  0.50520869  0.86703894  0.30723912    -0.38500
C3147       C  0.52564918  0.58887491  0.26203720    -0.05200
C3148       C  0.52994382  0.62084438  0.27663781    -0.02300
C3149       C  0.56656697  0.65643969  0.27805224     0.02700
C3150       C  0.59889745  0.65990937  0.26517476    -0.05200
C3151       C  0.59445831  0.62916698  0.24975023    -0.02300
C3152       C  0.55808618  0.59373011  0.24820548     0.02700
C3153       C  0.49721303  0.61664305  0.29095855     0.37300
C3154       C  0.62734222  0.63488409  0.23477719     0.37300
C3155       C  0.55419606  0.56286861  0.23181021     0.35700
C3156       C  0.57124277  0.68952654  0.29277901     0.35700
N3157       N  0.55121632  0.53822256  0.21882403    -0.39100
N3158       N  0.57537119  0.71631619  0.30427958    -0.39100
N3159       N  0.65373432  0.63999022  0.22285216    -0.38500
N3160       N  0.47119676  0.61343619  0.30243375    -0.38500
C3161       C  0.88382225  0.51514774  0.25528654    -0.05200
C3162       C  0.88131414  0.54181534  0.23737675    -0.02300
C3163       C  0.84598734  0.53975132  0.23457578     0.02700
C3164       C  0.81338093  0.51166603  0.24998303    -0.05200
C3165       C  0.82022072  0.99160785  0.26659181    -0.02300
C3166       C  0.85590015  0.99426980  0.26848344     0.02700
C3167       C  0.91467703  0.57048395  0.22131514     0.37300
C3168       C  0.78889071  0.96685933  0.28491846     0.37300
C3169       C  0.86119633  0.97126809  0.28847889     0.35700
C3170       C  0.84283083  0.56559027  0.21535111     0.35700
N3171       N  0.86580255  0.95292017  0.30421137    -0.39100
N3172       N  0.84031041  0.58599509  0.19989934    -0.39100
N3173       N  0.76355794  0.94737931  0.29934320    -0.38500
N3174       N  0.94125136  0.59344913  0.20851905    -0.38500
C3175       C  0.65062089  0.47274383  0.41247648    -0.05200
C3176       C  0.63567052  0.95157247  0.38520883    -0.02300
C3177       C  0.64360405  0.92034107  0.37984913     0.02700
C3178       C  0.66068037  0.90683172  0.39714884    -0.05200
C3179       C  0.66965898  0.92445139  0.41984681    -0.02300
C3180       C  0.66825829  0.45860450  0.42881594     0.02700
C3181       C  0.61666477  0.96450634  0.36802066     0.37300
C3182       C  0.68562870  0.90958379  0.43824885     0.37300
C3183       C  0.67959145  0.47670812  0.45199999     0.35700
C3184       C  0.63436440  0.90212643  0.35657332     0.35700
N3185       N  0.68864974  0.49087110  0.47054374    -0.39100
N3186       N  0.62707737  0.88742524  0.33806489    -0.39100
N3187       N  0.69838187  0.89795472  0.45302355    -0.38500
N3188       N  0.60107574  0.97450532  0.35446396    -0.38500
C3189       C  0.59090910  0.75868287  0.39599059    -0.05200
C3190       C  0.58121936  0.72672164  0.38028149    -0.02300
C3191       C  0.04454659  0.69106876  0.38490264     0.02700
C3192       C  0.01497906  0.69127597  0.39909372    -0.05200
C3193       C  0.52575396  0.72141326  0.41519422    -0.02300
C3194       C  0.56343426  0.75527727  0.41400509     0.02700
C3195       C  0.61007304  0.72859768  0.36303836     0.37300
C3196       C  0.99311673  0.72359579  0.42904792     0.37300
C3197       C  0.57420259  0.78582138  0.43194917     0.35700
C3198       C  0.03615850  0.65528808  0.37160377     0.35700
N3199       N  0.58277573  0.81004069  0.44629717    -0.39100
N3200       N  0.02942224  0.62659056  0.36115140    -0.39100
N3201       N  0.96926942  0.72247235  0.44186388    -0.38500
N3202       N  0.63302055  0.72960044  0.34941949    -0.38500
C3203       C  0.73039291  0.83289862  0.40359920    -0.05200
C3204       C  0.73044698  0.80908580  0.42431953    -0.02300
C3205       C  0.76499118  0.81188937  0.43069274     0.02700
C3206       C  0.79936676  0.83798463  0.41622429    -0.05200
C3207       C  0.79943874  0.86228879  0.39575408    -0.02300
C3208       C  0.76501385  0.85982750  0.38951090     0.02700
C3209       C  0.69539748  0.78284901  0.43965417     0.37300
C3210       C  0.83470520  0.88915272  0.38073351     0.37300
C3211       C  0.76512165  0.88468214  0.36837162     0.35700
C3212       C  0.76544439  0.78840347  0.45234795     0.35700
N3213       N  0.76501157  0.90465606  0.35168698    -0.39100
N3214       N  0.76606418  0.76983729  0.46959524    -0.39100
N3215       N  0.86279333  0.91067700  0.36876521    -0.38500
N3216       N  0.66756328  0.76187308  0.45196500    -0.38500
C3217       C  0.78721559  0.52847192  0.58399020    -0.05200
C3218       C  0.80795954  0.55313854  0.60272293    -0.02300
C3219       C  0.80651231  0.58880543  0.60715613     0.02700
C3220       C  0.78405761  0.59967074  0.59297555    -0.05200
C3221       C  0.76240108  0.57419532  0.57463100    -0.02300
C3222       C  0.76431707  0.53879918  0.57003123     0.02700
C3223       C  0.83041779  0.54152809  0.61766086     0.37300
C3224       C  0.73893539  0.58467230  0.55994752     0.37300
C3225       C  0.74362094  0.51358992  0.55047966     0.35700
C3226       C  0.82735616  0.61374363  0.62675797     0.35700
N3227       N  0.72725013  0.49357053  0.53485333    -0.39100
N3228       N  0.84392749  0.63397000  0.64226273    -0.39100
N3229       N  0.71987602  0.59241692  0.54820052    -0.38500
N3230       N  0.84838635  0.53241520  0.62959300    -0.38500
C3231       C  0.93075203  0.81972812  0.59707071    -0.05200
C3232       C  0.90572335  0.80971979  0.61807004    -0.02300
C3233       C  0.86864874  0.77399086  0.61944781     0.02700
C3234       C  0.85620466  0.74922890  0.59946127    -0.05200
C3235       C  0.88094254  0.76014100  0.57818824    -0.02300
C3236       C  0.91849149  0.79459807  0.57727159     0.02700
C3237       C  0.91858592  0.83558657  0.63844230     0.37300
C3238       C  0.86762746  0.73597034  0.55711127     0.37300
C3239       C  0.94502237  0.80295111  0.55640465     0.35700
C3240       C  0.84421979  0.76138271  0.64184126     0.35700
N3241       N  0.46886050  0.81126194  0.54015415    -0.39100
N3242       N  0.82482844  0.75095773  0.65978133    -0.39100
N3243       N  0.85680810  0.71670692  0.54033071    -0.38500
N3244       N  0.92898569  0.85623377  0.65468173    -0.38500
C3245       C  0.71483250  0.67389427  0.59937978    -0.05200
C3246       C  0.71329011  0.70196200  0.58201539    -0.02300
C3247       C  0.67803606  0.69930852  0.57812195     0.02700
C3248       C  0.64412786  0.66885563  0.59165188    -0.05200
C3249       C  0.64535148  0.64024435  0.60866221    -0.02300
C3250       C  0.68065806  0.64271122  0.61253940     0.02700
C3251       C  0.74761324  0.73263117  0.56733293     0.37300
C3252       C  0.61040954  0.60882923  0.62246645     0.37300
C3253       C  0.68182990  0.61364142  0.63042868     0.35700
C3254       C  0.67653864  0.72759481  0.55979024     0.35700
N3255       N  0.68268105  0.59036576  0.64464543    -0.39100
N3256       N  0.67542637  0.75021064  0.54520661    -0.39100
N3257       N  0.58238124  0.58372039  0.63329405    -0.38500
N3258       N  0.77497117  0.75711915  0.55566487    -0.38500
C3259       C  0.97870074  0.59001842  0.72650518    -0.05200
C3260       C  0.49143551  0.60498680  0.75086551    -0.02300
C3261       C  0.48702052  0.63768233  0.75836245     0.02700
C3262       C  0.96916548  0.65428405  0.74303108    -0.05200
C3263       C  0.95598224  0.63868706  0.72030533    -0.02300
C3264       C  0.96053923  0.60639849  0.71210093     0.02700
C3265       C  0.50786708  0.58712061  0.76693172     0.37300
C3266       C  0.93965531  0.65740253  0.70480057     0.37300
C3267       C  0.94829981  0.59149285  0.68830916     0.35700
C3268       C  0.49999193  0.65437003  0.78168851     0.35700
N3269       N  0.93863332  0.57962776  0.66932322    -0.39100
N3270       N  0.51028929  0.66770032  0.80028734    -0.39100
N3271       N  0.92692953  0.67249245  0.69230905    -0.38500
N3272       N  0.52098784  0.57278612  0.77965848    -0.38500
C3273       C  0.55449056  0.52026946  0.72290123    -0.05200
C3274       C  0.59181939  0.55200700  0.71402375    -0.02300
C3275       C  0.62414827  0.54955486  0.72030695     0.02700
C3276       C  0.61930194  0.51558224  0.73556165    -0.05200
C3277       C  0.58628621  0.98698500  0.74476908    -0.02300
C3278       C  0.55360551  0.98886277  0.73921496     0.02700
C3279       C  0.59720933  0.58683178  0.69810991     0.37300
C3280       C  0.58237350  0.95343520  0.76134429     0.37300
C3281       C  0.51636625  0.95661045  0.75017013     0.35700
C3282       C  0.66241346  0.58145704  0.71064235     0.35700
N3283       N  0.98324013  0.92736136  0.75528599    -0.39100
N3284       N  0.69308118  0.60674730  0.70311775    -0.39100
N3285       N  0.57939897  0.92686669  0.77459987    -0.38500
N3286       N  0.60218277  0.61498796  0.68549254    -0.38500
C3287       C  0.85208656  0.86800894  0.72206155    -0.05200
C3288       C  0.86873798  0.88371254  0.69809352    -0.02300
C3289       C  0.90299902  0.92245719  0.69422824     0.02700
C3290       C  0.91964042  0.94574309  0.71422188    -0.05200
C3291       C  0.90321049  0.92992565  0.73817059    -0.02300
C3292       C  0.86949498  0.89108987  0.74209404     0.02700
C3293       C  0.84980334  0.86085535  0.67743283     0.37300
C3294       C  0.92078988  0.95391460  0.75883737     0.37300
C3295       C  0.85135976  0.87630912  0.76661667     0.35700
C3296       C  0.92054140  0.93896096  0.66977243     0.35700
N3297       N  0.83696021  0.86496565  0.78618146    -0.39100
N3298       N  0.93464665  0.95218182  0.65027940    -0.39100
N3299       N  0.93485563  0.97300300  0.77526956    -0.38500
N3300       N  0.83455408  0.84296971  0.66087863    -0.37300
C3301       C  0.56443799  0.81898500  0.92937746    -0.05200
C3302       C  0.53448658  0.79945162  0.94794229    -0.02300
C3303       C  0.00105010  0.80040641  0.94882588     0.02700
C3304       C  0.00015418  0.82542279  0.92912609    -0.05200
C3305       C  0.52975296  0.84732431  0.90844921    -0.02300
C3306       C  0.56191529  0.84258281  0.90951888     0.02700
C3307       C  0.53720511  0.77497927  0.96819323     0.37300
C3308       C  0.52698021  0.87162530  0.88809142     0.37300
C3309       C  0.59223722  0.86141625  0.89001511     0.35700
C3310       C  0.96861408  0.77895917  0.96677441     0.35700
N3311       N  0.61657074  0.87624756  0.87457212    -0.39100
N3312       N  0.94286198  0.76184766  0.98119082    -0.39100
N3313       N  0.52439847  0.89096535  0.87201048    -0.38500
N3314       N  0.53952404  0.75538442  0.98424043    -0.38500
C3315       C  0.63683157  0.74649182  0.92421999    -0.05200
C3316       C  0.62461277  0.72702023  0.90230552    -0.02300
C3317       C  0.62702388  0.69170648  0.89813084     0.02700
C3318       C  0.64304506  0.67685920  0.91539741    -0.05200
C3319       C  0.65722765  0.69772109  0.93665232    -0.02300
C3320       C  0.65333629  0.73193220  0.94131787     0.02700
C3321       C  0.61086752  0.74414091  0.88369982     0.37300
C3322       C  0.67504385  0.68342218  0.95399723     0.37300
C3323       C  0.66491797  0.75113198  0.96417100     0.35700
C3324       C  0.61321162  0.67063449  0.87604982     0.35700
N3325       N  0.67387667  0.76629822  0.98245140    -0.39100
N3326       N  0.60211929  0.65360058  0.85852299    -0.39100
N3327       N  0.68948458  0.67221843  0.96775880    -0.38500
N3328       N  0.60021878  0.75801716  0.86878476    -0.38500
C3329       C  0.77185785  0.97163536  0.93320968    -0.05200
C3330       C  0.74496402  0.95837814  0.95346803    -0.02300
C3331       C  0.71003899  0.92032154  0.95371617     0.02700
C3332       C  0.70299584  0.89490333  0.93418991    -0.05200
C3333       C  0.73003184  0.90830632  0.91394533    -0.02300
C3334       C  0.76426726  0.94682917  0.91337735     0.02700
C3335       C  0.75344771  0.98349783  0.97412889     0.37300
C3336       C  0.72200818  0.88315548  0.89328553     0.37300
C3337       C  0.79192864  0.96107496  0.89242150     0.35700
C3338       C  0.68149080  0.90728086  0.97403634     0.35700
N3339       N  0.81416557  0.97276624  0.87581657    -0.39100
N3340       N  0.65853473  0.89708773  0.99010534    -0.39100
N3341       N  0.71539383  0.86295958  0.87688223    -0.38500
N3342       N  0.76361176  0.50528653  0.99393984    -0.38500
C3343       C  0.68876276  0.53960070  0.08196492    -0.05200
C3344       C  0.72084403  0.53427650  0.08430641    -0.02300
C3345       C  0.75581276  0.56717318  0.09095380     0.02700
C3346       C  0.76274378  0.60789392  0.08890544    -0.05200
C3347       C  0.73138389  0.61410394  0.08500588    -0.02300
C3348       C  0.69413756  0.57973506  0.08353702     0.02700
C3349       C  0.71858250  0.99987943  0.07840678     0.37300
C3350       C  0.73632149  0.65529784  0.08291790     0.37300
C3351       C  0.66150035  0.58598571  0.08465512     0.35700
C3352       C  0.78116423  0.55797935  0.10430399     0.35700
N3353       N  0.63561355  0.59113169  0.08554730    -0.39100
N3354       N  0.79988283  0.55026722  0.11641728    -0.39100
N3355       N  0.73921737  0.68765295  0.08133198    -0.38500
N3356       N  0.71806677  0.97046552  0.07246978    -0.38500
C3357       C  0.84405779  0.75272356  0.09753044    -0.05200
C3358       C  0.83228723  0.76507426  0.07652079    -0.02300
C3359       C  0.82717117  0.79909430  0.07672234     0.02700
C3360       C  0.83614250  0.82217634  0.09737135    -0.05200
C3361       C  0.84982547  0.81113187  0.11795324    -0.02300
C3362       C  0.85350506  0.77585893  0.11810343     0.02700
C3363       C  0.82477292  0.74211582  0.05485191     0.37300
C3364       C  0.85928867  0.83561505  0.13892665     0.37300
C3365       C  0.86672408  0.76315678  0.13916504     0.35700
C3366       C  0.81103280  0.80916041  0.05614880     0.35700
N3367       N  0.87744423  0.75281044  0.15580396    -0.39100
N3368       N  0.79757489  0.81651653  0.03984379    -0.39100
N3369       N  0.86669967  0.85537405  0.15556866    -0.38500
N3370       N  0.81885078  0.72346479  0.03778816    -0.38500
C3371       C  0.97794169  0.68485449  0.07266504    -0.05200
C3372       C  0.94418172  0.64717962  0.08102007    -0.02300
C3373       C  0.90803886  0.64228447  0.07782457     0.02700
C3374       C  0.90493676  0.67737203  0.07216063    -0.05200
C3375       C  0.93848420  0.71503436  0.06306677    -0.02300
C3376       C  0.97475916  0.71818096  0.06251275     0.02700
C3377       C  0.94623510  0.61376687  0.09406846     0.37300
C3378       C  0.93574128  0.75014958  0.05347840     0.37300
C3379       C  0.00855374  0.75566963  0.05169477     0.35700
C3380       C  0.87539971  0.60068070  0.07750601     0.35700
N3381       N  0.53795781  0.78339563  0.04876840    -0.39100
N3382       N  0.85096617  0.56691376  0.07573409    -0.39100
N3383       N  0.93378533  0.77830241  0.04588371    -0.38500
N3384       N  0.94802629  0.58739971  0.10461982    -0.38500
loop_ 
_geom_bond_atom_site_label_1 
_geom_bond_atom_site_label_2 
_geom_bond_distance 
_geom_bond_site_symmetry_2 
_ccdc_geom_bond_type 
C1            C2   1.428       .  A
C1            C6   1.409       .  A
C1          C485   1.488       .  S
C2            C3   1.422       .  A
C2            H7   1.083       .  S
C3         C1696   1.390       .  A
C3           C89   1.484       .  S
C4            C5   1.385       .  A
C4         C1695   1.390       .  A
C4            H8   1.080       .  S
C5         C1698   1.395       .  A
C5          C833   1.486       .  S
C6         C1697   1.400       .  A
C6            H9   1.084       .  S
C10          C11   1.394       .  A
C10          C15   1.440       .  A
C10         C487   1.492       .  S
C11          C12   1.376       .  A
C11          H16   1.087       .  S
C12          C13   1.382       .  A
C12         C822   1.458       .  S
C13          C14   1.403       .  A
C13          H17   1.085       .  S
C14          C15   1.440       .  A
C14          C90   1.509       .  S
C15          H18   1.082       .  S
C19          C20   1.418       .  A
C19          C24   1.402       .  A
C19          C91   1.472       .  S
C20          C21   1.413       .  A
C20          H25   1.083       .  S
C21          C22   1.397       .  A
C21         C486   1.476       .  S
C22          C23   1.392       .  A
C22          H26   1.082       .  S
C23          C24   1.398       .  A
C23        C1651   1.495       .  S
C24          H27   1.084       .  S
C28         C836   1.488       .  S
C28          N29   1.361       .  A
C28          N33   1.355       .  A
N29          C30   1.363       .  A
C30         C808   1.484       .  S
C30          N31   1.348       .  A
N31          C32   1.348       .  A
C32         C819   1.451       .  S
C32          N33   1.348       .  A
C34          C35   1.395       .  A
C34          C39   1.423       .  A
C34         C110   1.480       .  S
C35          C36   1.388       .  A
C35         H886   1.086   1_545  S
C36          C37   1.392       .  A
C36        C1637   1.469   1_545  S
C37          C38   1.402       .  A
C37          H41   1.085       .  S
C38          C39   1.427       .  A
C38         C202   1.487       .  S
C39          H42   1.083       .  S
H40         C881   1.086       .  S
C43          C44   1.421       .  A
C43          C48   1.407       .  A
C43         C194   1.483       .  S
C44          C45   1.422       .  A
C44          H49   1.083       .  S
C45          C46   1.403       .  A
C45          C95   1.482       .  S
C46          C47   1.386       .  A
C46          H50   1.085       .  S
C47          C48   1.390       .  A
C47         C780   1.479       .  S
C48          H51   1.085       .  S
C52         C777   1.476       .  S
C52          N53   1.354       .  A
C52          N57   1.360       .  A
N53          C54   1.354       .  A
C54         C794   1.468       .  S
C54          N55   1.351       .  A
N55          C56   1.352       .  A
C56         C763   1.467       .  S
C56          N57   1.358       .  A
C58          C59   1.396       .  A
C58          C63   1.421       .  A
C58         C209   1.476       .  S
C59          C60   1.390       .  A
C59          H64   1.086       .  S
C60          C61   1.394       .  A
C60         C766   1.475       .  S
C61          C62   1.404       .  A
C61          H65   1.085       .  S
C62          C63   1.421       .  A
C62         C103   1.482       .  S
C63          H66   1.083       .  S
Zr67         O68   2.440       .  S
Zr67         O73   2.479       .  S
Zr67        O915   2.484       .  S
Zr67       O1762   2.474       .  S
Zr67         O77   2.425       .  S
Zr67         O78   2.394       .  S
Zr67       O2613   2.386       .  S
Zr67        O922   2.388       .  S
O68         H124   0.990       .  S
O68         H132   0.990       .  S
O69        Zr913   2.485       .  S
O69        C1781   1.292       .  A
O70       Zr1759   2.479   1_455  S
O70          C91   1.291       .  A
O71         Zr81   2.477       .  S
O71          C90   1.289       .  A
O72        Zr926   2.411   1_554  S
O72          C91   1.280       .  A
O73          C90   1.299       .  A
O74         Zr82   2.426   1_554  S
O74          C89   1.273       .  A
O75         Zr80   2.406   1_544  S
O75         Zr82   2.383   1_554  S
O75       Zr2605   2.388   1_455  S
O76        Zr913   2.390       .  S
O76        Zr927   2.393       .  S
O76       Zr1774   2.386   1_554  S
O76         H111   0.963       .  S
O77         Zr97   2.409       .  S
O77       Zr2618   2.404   1_554  S
O77         H114   0.965       .  S
O78         Zr81   2.377       .  S
O78         Zr97   2.376       .  S
Zr79       O1796   2.441       .  S
Zr79        O106   2.497       .  S
Zr79        O944   2.478   1_545  S
Zr79       O1786   2.485       .  S
Zr79         O85   2.417       .  S
Zr79       O1778   2.422       .  S
Zr79        O933   2.376   1_545  S
Zr79        O934   2.398   1_545  S
Zr80         O92   2.436   1_565  S
Zr80        O945   2.436       .  S
Zr80         O93   2.444   1_565  S
Zr80        O918   2.408   1_556  S
Zr80         O86   2.398   1_565  S
Zr80       O2615   2.405   1_456  S
Zr80       O2625   2.387   1_455  S
Zr81         O83   2.436       .  S
Zr81        O951   2.440       .  S
Zr81        O953   2.413   1_554  S
Zr81         O88   2.416   1_554  S
Zr81        O922   2.392       .  S
Zr81        O931   2.405   1_554  S
Zr82        O109   2.437       .  S
Zr82         O84   2.436       .  S
Zr82       O1800   2.434   1_556  S
Zr82         O86   2.372       .  S
Zr82       O1768   2.384   1_456  S
Zr82       O1777   2.402   1_455  S
O83         H120   0.990       .  S
O84         H115   0.991       .  S
O84         H129   0.990       .  S
O85        Zr927   2.403   1_556  S
O85       Zr1774   2.396       .  S
O86       Zr1771   2.428   1_455  S
O86         H112   0.961       .  S
O87         Zr97   2.380   1_556  S
O87        Zr925   2.373       .  S
O87       Zr2618   2.388       .  S
O88         Zr97   2.381   1_556  S
O88        Zr925   2.395       .  S
O88         H113   0.966       .  S
C89        O1761   1.292       .  A
O92         H128   0.990       .  S
O93          C95   1.284       .  A
O94       Zr1771   2.465   1_455  S
O94          C95   1.295       .  A
O96         Zr97   2.437       .  S
O96         H125   0.991       .  S
Zr97        O100   2.437       .  S
Zr97        O101   2.437       .  S
Zr97        O102   2.419   1_554  S
O98        Zr925   2.480       .  S
O98         C103   1.291       .  A
O99        Zr926   2.436       .  S
O99         H116   0.990       .  S
O99         H131   0.990       .  S
O100        H117   0.990   1_554  S
O101        H121   0.990   1_554  S
O101        H130   0.990       .  S
O102        C103   1.276       .  A
O104      Zr1771   2.442       .  S
O104        H127   0.990       .  S
O104       H1815   0.990       .  S
O105       Zr927   2.441       .  S
O105        H119   0.990       .  S
O105        H126   0.990       .  S
O106        C110   1.296       .  A
O107       Zr927   2.415   1_556  S
O107        C110   1.279       .  A
O108      Zr1774   2.434   1_554  S
O108        H118   0.990       .  S
O109        H122   0.990       .  S
H123       O1796   0.990       .  S
C133        C134   1.395       .  A
C133        C138   1.426       .  A
C133        C289   1.488       .  S
C134        C135   1.384       .  A
C134        H139   1.086       .  S
C135        C136   1.390       .  A
C135        C749   1.469       .  S
C136        C137   1.401       .  A
C136        H140   1.085       .  S
C137        C138   1.432       .  A
C137        C188   1.488       .  S
C138        H141   1.082       .  S
C142        C143   1.421       .  A
C142        C147   1.394       .  A
C142        C190   1.465       .  S
C143        C990   1.417   1_545  A
C143        H148   1.083       .  S
C144        C145   1.403       .  A
C144        C989   1.419       .  A
C144        C287   1.489       .  S
C145        C992   1.394       .  A
C145        H149   1.077       .  S
C146        C147   1.386       .  A
C146        C991   1.391   1_545  A
C146        C738   1.477       .  S
C147        H150   1.086       .  S
C151        C152   1.410       .  A
C151        C156   1.417       .  A
C151        C189   1.479       .  S
C152        C153   1.391       .  A
C152        H157   1.084       .  S
C153       C1846   1.386       .  A
C153        C724   1.475       .  S
C154        C155   1.398       .  A
C154       C1845   1.386   1_455  A
C154        H158   1.085       .  S
C155       C1848   1.416   1_455  A
C155        C288   1.475       .  S
C156       C1847   1.416       .  A
C156        H159   1.083       .  S
C160        C721   1.478       .  S
C160        N165   1.353       .  A
C160       N1853   1.360       .  A
N161        C162   1.360       .  A
N161       C1852   1.361   1_455  A
C162        C735   1.480       .  S
C162       N2701   1.353   1_445  A
N163        C164   1.350       .  A
N163       C2700   1.355       .  A
C164        C752   1.462       .  S
C164       N1011   1.352       .  A
N165       C1010   1.352   1_545  A
Zr166       O167   2.442       .  S
Zr166       O168   2.482       .  S
Zr166       O169   2.456       .  S
Zr166       O172   2.445       .  S
Zr166       O174   2.376       .  S
Zr166       O175   2.389       .  S
Zr166       O176   2.423       .  S
Zr166       O177   2.390       .  S
O167        H223   0.990       .  S
O167        H231   0.991       .  S
O168        C188   1.295       .  A
O169        C190   1.287       .  A
O170       Zr180   2.461       .  S
O170        C189   1.288       .  A
O171       Zr179   2.423       .  S
O171        C190   1.282       .  A
O172        C189   1.289       .  A
O173       Zr181   2.418       .  S
O173        C188   1.277       .  A
O174       Zr179   2.412       .  S
O174       Zr181   2.390       .  S
O175       Zr180   2.396       .  S
O175       Zr181   2.382       .  S
O175        H210   0.966       .  S
O176       Zr179   2.398       .  S
O176       Zr196   2.407       .  S
O176        H213   0.965       .  S
O177       Zr180   2.371       .  S
O177       Zr196   2.372       .  S
Zr178       O203   2.440       .  S
Zr178       O197   2.479       .  S
Zr178       O205   2.461       .  S
Zr178       O193   2.478       .  S
Zr178       O184   2.418       .  S
Zr178       O185   2.414       .  S
Zr178       O186   2.378       .  S
Zr178       O187   2.388       .  S
Zr179       O198   2.436       .  S
Zr179       O191   2.435       .  S
Zr179       O192   2.443       .  S
Zr179       O185   2.401       .  S
Zr179       O186   2.394       .  S
Zr180       O182   2.436       .  S
Zr180       O204   2.438       .  S
Zr180       O206   2.428       .  S
Zr180       O184   2.396       .  S
Zr180       O187   2.410       .  S
Zr181       O207   2.433       .  S
Zr181       O208   2.441       .  S
Zr181       O183   2.442       .  S
Zr181       O184   2.402       .  S
Zr181       O185   2.365       .  S
O182        H219   0.990       .  S
O183        H214   0.990       .  S
O183        H228   0.990       .  S
O185        H211   0.960       .  S
O186       Zr196   2.384       .  S
O187       Zr196   2.383       .  S
O187        H212   0.966       .  S
O191        H227   0.990       .  S
O192        C194   1.285       .  A
O193        C194   1.295       .  A
O195       Zr196   2.440       .  S
O195        H224   0.991       .  S
Zr196       O199   2.435       .  S
Zr196       O200   2.440       .  S
Zr196       O201   2.420       .  S
O197        C202   1.293       .  A
O198        H215   0.990       .  S
O198        H230   0.990       .  S
O199        H216   0.990       .  S
O200        H220   0.990       .  S
O200        H229   0.990       .  S
O201        C202   1.277       .  A
O203        H222   0.991       .  S
O203        H226   0.990       .  S
O204        H218   0.990       .  S
O204        H225   0.990       .  S
O205        C209   1.289       .  A
O206        C209   1.284       .  A
O207        H217   0.990       .  S
O208        H221   0.990       .  S
C232        C233   1.403       .  A
C232        C237   1.428       .  A
C232        C400   1.487       .  S
C233        C234   1.394       .  A
C233        H238   1.085       .  S
C234        C235   1.388       .  A
C234        C710   1.474       .  S
C235        C236   1.393       .  A
C235        H239   1.086       .  S
C236        C237   1.424       .  A
C236        C301   1.482       .  S
C237        H240   1.082       .  S
C241        C242   1.400   1_455  A
C241        C246   1.420       .  A
C241        C308   1.470       .  S
C242        C243   1.386       .  A
C242        H247   1.086       .  S
C243        C244   1.390       .  A
C243       C2385   1.478       .  S
C244        C245   1.410   1_655  A
C244       H1940   1.085       .  S
C245        C246   1.419       .  A
C245        C392   1.485       .  S
C246        H249   1.083       .  S
H248       C1936   1.085       .  S
C250        C251   1.394       .  A
C250        C255   1.425       .  A
C250       C1253   1.470       .  S
C251        C252   1.385       .  A
C251       H1102   1.086       .  S
C252        C253   1.384       .  A
C252       C1525   1.470       .  S
C253        C254   1.402       .  A
C253        H257   1.084       .  S
C254        C255   1.422       .  A
C254        C293   1.485       .  S
C255        H258   1.082       .  S
H256       C1097   1.086   1_545  S
C259        C707   1.475       .  S
C259        N260   1.359       .  A
C259        N264   1.352       .  A
N260        C261   1.356       .  A
C261        C696   1.468       .  S
C261        N262   1.352       .  A
N262        C263   1.351       .  A
C263        C682   1.468       .  S
C263        N264   1.350       .  A
Zr265       O266   2.441       .  S
Zr265       O267   2.494       .  S
Zr265       O268   2.503       .  S
Zr265       O271   2.459       .  S
Zr265       O273   2.392       .  S
Zr265       O274   2.393       .  S
Zr265       O275   2.427       .  S
Zr265       O276   2.403       .  S
O266        H322   0.990       .  S
O266        H330   0.990       .  S
O267        C287   1.292       .  A
O268        C289   1.294       .  A
O269       Zr279   2.441       .  S
O269        C288   1.283       .  A
O270       Zr278   2.405       .  S
O270        C289   1.281       .  A
O271        C288   1.294       .  A
O272       Zr280   2.425       .  S
O272        C287   1.275       .  A
O273       Zr278   2.418       .  S
O273       Zr280   2.392       .  S
O274       Zr279   2.369       .  S
O274       Zr280   2.369       .  S
O274        H309   0.958       .  S
O275       Zr278   2.406       .  S
O275       Zr295   2.413       .  S
O275        H312   0.965       .  S
O276       Zr279   2.384       .  S
O276       Zr295   2.374       .  S
Zr277       O302   2.440       .  S
Zr277       O296   2.484       .  S
Zr277       O304   2.467       .  S
Zr277       O292   2.474       .  S
Zr277       O283   2.424       .  S
Zr277       O284   2.417       .  S
Zr277       O285   2.380       .  S
Zr277       O286   2.389       .  S
Zr278       O297   2.437       .  S
Zr278       O290   2.434       .  S
Zr278       O291   2.455       .  S
Zr278       O284   2.396       .  S
Zr278       O285   2.390       .  S
Zr279       O281   2.435       .  S
Zr279       O303   2.442       .  S
Zr279       O305   2.404       .  S
Zr279       O283   2.393       .  S
Zr279       O286   2.398       .  S
Zr280       O306   2.436       .  S
Zr280       O307   2.438       .  S
Zr280       O282   2.438       .  S
Zr280       O283   2.407       .  S
Zr280       O284   2.364       .  S
O281       H2010   0.990   1_455  S
O282        H313   0.990       .  S
O282        H327   0.989       .  S
O284        H310   0.958       .  S
O285       Zr295   2.390       .  S
O286       Zr295   2.384       .  S
O286        H311   0.966       .  S
O290        H326   0.990       .  S
O291        C293   1.286       .  A
O292        C293   1.294       .  A
O294       Zr295   2.442       .  S
O294        H323   0.991       .  S
Zr295       O298   2.438       .  S
Zr295       O299   2.439       .  S
Zr295       O300   2.421       .  S
O296        C301   1.292       .  A
O297        H314   0.990       .  S
O297        H329   0.990       .  S
O298        H315   0.990       .  S
O299        H319   0.990       .  S
O299        H328   0.990       .  S
O300        C301   1.274       .  A
O302        H321   0.991       .  S
O302        H325   0.990       .  S
O303        H317   0.990       .  S
O303        H324   0.990       .  S
O304        C308   1.289       .  A
O305        C308   1.280       .  A
O306        H316   0.990       .  S
O307        H320   0.990       .  S
H318       O1973   0.990       .  S
C331        C332   1.422       .  A
C331        C336   1.401       .  A
C331        C386   1.481       .  S
C332        C333   1.421       .  A
C332        H337   1.083       .  S
C333        C334   1.397       .  A
C333        C551   1.482       .  S
C334        C335   1.388       .  A
C334        H338   1.082       .  S
C335        C336   1.392       .  A
C335        C668   1.475       .  S
C336        H339   1.084       .  S
C340        C341   1.399       .  A
C340        C345   1.422       .  A
C340        C553   1.477       .  S
C341        C342   1.385       .  A
C341        H346   1.085       .  S
C342        C343   1.380       .  A
C342        C654   1.463       .  S
C343        C344   1.400       .  A
C343        H347   1.086       .  S
C344        C345   1.422       .  A
C344        C387   1.479       .  S
C345        H348   1.083       .  S
C349        C350   1.396       .  A
C349        C354   1.425       .  A
C349        C388   1.471       .  S
C350        C351   1.386       .  A
C350        H355   1.085   1_545  S
C351        C352   1.382       .  A
C351        C637   1.459   1_545  S
C352        C353   1.395       .  A
C352        H356   1.086       .  S
C353        C354   1.420       .  A
C353        C552   1.480       .  S
C354        H357   1.083       .  S
C358        C665   1.470       .  S
C358        N359   1.354       .  A
C358        N363   1.358       .  A
N359        C360   1.351       .  A
C360        C640   1.469       .  S
C360        N361   1.347       .  A
N361        C362   1.351       .  A
C362        C651   1.472       .  S
C362        N363   1.356       .  A
Zr364      O2057   2.441       .  S
Zr364       O370   2.443       .  S
Zr364      O1212   2.483   1_545  S
Zr364      O2059   2.461       .  S
Zr364       O375   2.396       .  S
Zr364      O1218   2.383   1_545  S
Zr364      O1219   2.390   1_545  S
Zr364      O2066   2.427       .  S
O365      Zr2056   2.442       .  S
O365        H421   0.990   1_655  S
O365        H429   0.991   1_655  S
O366      Zr1210   2.477       .  S
O366        C386   1.289       .  A
O367      Zr2056   2.472   1_455  S
O367        C388   1.289       .  A
O368       Zr378   2.453       .  S
O368        C387   1.286       .  A
O369       Zr377   2.425       .  S
O369        C388   1.283       .  A
O370        C387   1.291       .  A
O371       Zr379   2.413       .  S
O371        C386   1.271       .  A
O372       Zr379   2.386       .  S
O372      Zr1210   2.387       .  S
O372      Zr2915   2.413       .  S
O373       Zr379   2.376       .  S
O373      Zr1210   2.391       .  S
O373      Zr1224   2.394       .  S
O373        H408   0.965       .  S
O374       Zr377   2.407       .  S
O374       Zr394   2.402       .  S
O374      Zr2056   2.424   1_455  S
O374        H411   0.964       .  S
O375       Zr378   2.376       .  S
O375      Zr2086   2.374       .  S
Zr376       O401   2.439       .  S
Zr376       O403   2.466       .  S
Zr376      O1241   2.491       .  S
Zr376      O2083   2.454       .  S
Zr376       O382   2.414       .  S
Zr376       O383   2.422       .  S
Zr376      O2922   2.373       .  S
Zr376      O1231   2.387       .  S
Zr377       O396   2.436       .  S
Zr377      O1235   2.435   1_545  S
Zr377      O1236   2.454   1_545  S
Zr377       O384   2.395       .  S
Zr377      O2910   2.412   1_445  S
Zr377      O2921   2.404   1_445  S
Zr378       O380   2.437       .  S
Zr378      O1248   2.438   1_545  S
Zr378       O404   2.421   1_545  S
Zr378       O385   2.410       .  S
Zr378      O1219   2.394   1_545  S
Zr378      O1228   2.387   1_545  S
Zr379       O405   2.436       .  S
Zr379       O406   2.436       .  S
Zr379       O381   2.433       .  S
Zr379       O382   2.394       .  S
Zr379       O383   2.367       .  S
O380        H417   0.990       .  S
O381        H412   0.991       .  S
O381        H426   0.990       .  S
O382      Zr1224   2.390       .  S
O383      Zr2915   2.401       .  S
O383        H409   0.961       .  S
O384       Zr394   2.389       .  S
O384      Zr2914   2.372   1_455  S
O385      Zr1222   2.387       .  S
O385      Zr2086   2.387       .  S
O385        H410   0.966       .  S
O389      Zr1223   2.435       .  S
O389        H425   0.990       .  S
O390      Zr1223   2.467       .  S
O390        C392   1.289       .  A
O391      Zr2068   2.456       .  S
O391        C392   1.291   1_655  A
O393       Zr394   2.440       .  S
O393        H422   0.990       .  S
Zr394       O397   2.438       .  S
Zr394       O398   2.440   1_455  S
Zr394       O399   2.414       .  S
Zr394      O2067   2.374   1_455  S
Zr394      O2077   2.386   1_455  S
O395      Zr1222   2.481       .  S
O395       C2092   1.292       .  A
O396        H413   0.990       .  S
O396        H428   0.990       .  S
O397        H414   0.990       .  S
O398        H418   0.990       .  S
O398       H2119   0.990       .  S
O399        C400   1.275       .  A
C400       O2087   1.293       .  A
O401        H420   0.991       .  S
O401        H424   0.990       .  S
O402      Zr1224   2.439       .  S
O402        H416   0.990       .  S
O402        H423   0.990       .  S
O403       C1253   1.290       .  A
O404        C407   1.282       .  A
O405        H415   0.990       .  S
O406        H419   0.990       .  S
C407       C1096   1.470       .  S
C407       O1249   1.290       .  A
H427       O2090   0.990       .  S
C430        C435   1.401       .  A
C430       C1277   1.423       .  A
C430        C499   1.484       .  S
C431        C432   1.421       .  A
C431       C1276   1.422   1_545  A
C431        H436   1.083       .  S
C432        C433   1.396       .  A
C432        C565   1.479       .  S
C433        C434   1.389       .  A
C433        H437   1.086       .  S
C434       C1281   1.395   1_545  A
C434        C626   1.472       .  S
C435       C1280   1.393       .  A
C435        H438   1.085       .  S
C439        C440   1.400       .  A
C439        C444   1.427       .  A
C439        C572   1.480       .  S
C440        C441   1.386       .  A
C440        H445   1.086       .  S
C441        C442   1.381       .  A
C441        C612   1.470       .  S
C442        C443   1.403       .  A
C442        H446   1.086       .  S
C443        C444   1.425       .  A
C443        C491   1.488       .  S
C444        H447   1.082       .  S
C448        C449   1.396       .  A
C448       C2145   1.423       .  A
C448        C506   1.470   1_655  S
C449       C2142   1.385       .  A
C449        H454   1.086   1_655  S
C450        C451   1.386       .  A
C450       C2141   1.385       .  A
C450        C595   1.470       .  S
C451        C452   1.404       .  A
C451        H455   1.085       .  S
C452        C453   1.419       .  A
C452        C557   1.482       .  S
C453       C2140   1.422       .  A
C453        H456   1.083       .  S
C457        C623   1.464       .  S
C457        N458   1.355       .  A
C457       N1308   1.353   1_545  A
N458       C2151   1.355       .  A
C459        C609   1.471   1_655  S
C459        N460   1.353       .  A
C459       N2150   1.358       .  A
N460       C2999   1.350   1_545  A
C461        C598   1.475       .  S
C461        N462   1.353       .  A
C461       N2998   1.353       .  A
N462       C1303   1.355       .  A
Zr463       O464   2.441       .  S
Zr463       O465   2.494       .  S
Zr463       O466   2.498       .  S
Zr463       O469   2.464       .  S
Zr463       O471   2.391       .  S
Zr463       O472   2.399       .  S
Zr463       O473   2.427       .  S
Zr463       O474   2.391       .  S
O464        H520   0.990       .  S
O464        H528   0.990       .  S
O465        C485   1.295       .  A
O466        C487   1.294       .  A
O467       Zr477   2.450       .  S
O467        C486   1.285       .  A
O468       Zr476   2.429       .  S
O468        C487   1.288       .  A
O469        C486   1.295       .  A
O470       Zr478   2.419       .  S
O470        C485   1.276       .  A
O471       Zr476   2.416       .  S
O471       Zr478   2.389       .  S
O472       Zr477   2.390       .  S
O472       Zr478   2.374       .  S
O472        H507   0.965       .  S
O473       Zr476   2.409       .  S
O473       Zr493   2.402       .  S
O473        H510   0.964       .  S
O474       Zr477   2.381       .  S
O474       Zr493   2.367       .  S
Zr475       O500   2.444       .  S
Zr475       O494   2.488       .  S
Zr475       O502   2.466       .  S
Zr475       O490   2.456       .  S
Zr475       O481   2.425       .  S
Zr475       O482   2.422       .  S
Zr475       O483   2.372       .  S
Zr475       O484   2.387       .  S
Zr476       O495   2.436       .  S
Zr476       O488   2.435       .  S
Zr476       O489   2.472       .  S
Zr476       O482   2.399       .  S
Zr476       O483   2.395       .  S
Zr477       O479   2.436       .  S
Zr477       O501   2.440       .  S
Zr477       O503   2.421       .  S
Zr477       O481   2.393       .  S
Zr477       O484   2.411       .  S
Zr478       O504   2.435       .  S
Zr478       O505   2.437       .  S
Zr478       O480   2.439       .  S
Zr478       O481   2.404       .  S
Zr478       O482   2.373       .  S
O479        H516   0.990       .  S
O480        H511   0.990       .  S
O480        H525   0.990       .  S
O482        H508   0.960       .  S
O483       Zr493   2.385       .  S
O484       Zr493   2.388       .  S
O484        H509   0.966       .  S
O488        H524   0.990       .  S
O489        C491   1.290       .  A
O490        C491   1.293       .  A
O492       Zr493   2.434       .  S
O492        H521   0.990       .  S
Zr493       O496   2.438       .  S
Zr493       O497   2.439       .  S
Zr493       O498   2.406       .  S
O494        C499   1.291       .  A
O495        H512   0.990       .  S
O495        H527   0.990       .  S
O496        H513   0.990       .  S
O497        H517   0.990       .  S
O497        H526   0.990       .  S
O498        C499   1.270       .  A
O500        H519   0.991       .  S
O500        H523   0.991       .  S
O501        H515   0.990       .  S
O501        H522   0.990   1_455  S
O502        C506   1.289       .  A
O503        C506   1.280       .  A
O504        H514   0.990       .  S
O505        H518   0.990       .  S
Zr529       O530   2.440       .  S
Zr529       O531   2.474       .  S
Zr529       O532   2.466       .  S
Zr529       O535   2.466       .  S
Zr529       O537   2.389       .  S
Zr529       O538   2.395       .  S
Zr529       O539   2.425       .  S
Zr529       O540   2.398       .  S
O530        H586   0.990       .  S
O530        H594   0.991       .  S
O531        C551   1.289       .  A
O532        C553   1.288       .  A
O533       Zr543   2.446       .  S
O533        C552   1.284       .  A
O534       Zr542   2.422       .  S
O534        C553   1.284       .  A
O535        C552   1.294       .  A
O536       Zr544   2.424       .  S
O536        C551   1.274       .  A
O537       Zr542   2.409       .  S
O537       Zr544   2.385       .  S
O538       Zr543   2.384       .  S
O538       Zr544   2.374       .  S
O538        H573   0.962       .  S
O539       Zr542   2.404       .  S
O539       Zr559   2.410       .  S
O539        H576   0.965       .  S
O540       Zr543   2.389       .  S
O540       Zr559   2.373       .  S
Zr541       O566   2.441       .  S
Zr541       O560   2.476       .  S
Zr541       O568   2.466       .  S
Zr541       O556   2.466       .  S
Zr541       O547   2.420       .  S
Zr541       O548   2.420       .  S
Zr541       O549   2.381       .  S
Zr541       O550   2.394       .  S
Zr542       O561   2.437       .  S
Zr542       O554   2.435       .  S
Zr542       O555   2.456       .  S
Zr542       O548   2.401       .  S
Zr542       O549   2.389       .  S
Zr543       O545   2.435       .  S
Zr543       O567   2.440       .  S
Zr543       O569   2.421       .  S
Zr543       O547   2.387       .  S
Zr543       O550   2.403       .  S
Zr544       O570   2.431       .  S
Zr544       O571   2.436       .  S
Zr544       O546   2.435       .  S
Zr544       O547   2.404       .  S
Zr544       O548   2.364       .  S
O545        H582   0.990       .  S
O546        H577   0.990       .  S
O546        H591   0.990       .  S
O548        H574   0.960       .  S
O549       Zr559   2.389       .  S
O550       Zr559   2.390       .  S
O550        H575   0.966       .  S
O554        H590   0.990       .  S
O555        C557   1.287       .  A
O556        C557   1.293       .  A
O558       Zr559   2.442       .  S
O558        H587   0.991       .  S
Zr559       O562   2.436       .  S
Zr559       O563   2.438       .  S
Zr559       O564   2.411       .  S
O560        C565   1.290       .  A
O561        H578   0.990       .  S
O561        H593   0.990       .  S
O562        H579   0.990       .  S
O563        H583   0.990       .  S
O563        H592   0.990       .  S
O564        C565   1.270       .  A
O566        H585   0.991       .  S
O566        H589   0.990       .  S
O567        H581   0.990       .  S
O567        H588   0.990       .  S
O568        C572   1.288       .  A
O569        C572   1.283       .  A
O570        H580   0.990       .  S
O571        H584   0.990       .  S
C595        C600   1.406       .  A
C595       C2288   1.409       .  A
C596        C597   1.404       .  A
C596       C2287   1.409       .  A
C596        C601   1.451       .  S
C597       C2290   1.410       .  A
C597        C604   1.452       .  S
C598        C599   1.415       .  A
C598       C2289   1.414       .  A
C599        C600   1.404       .  A
C599        C602   1.451       .  S
C600        C603   1.452       .  S
C601        N608   1.157       .  T
C602        N607   1.157       .  T
C603        N605   1.157       .  T
C604        N606   1.157       .  T
C609        C610   1.412       .  A
C609        C614   1.413       .  A
C610        C611   1.408       .  A
C610        C615   1.451   1_455  S
C611        C612   1.409       .  A
C611        C618   1.450       .  S
C612        C613   1.409       .  A
C613        C614   1.401       .  A
C613        C616   1.453       .  S
C614        C617   1.453       .  S
C615        N622   1.157       .  T
C616        N621   1.157       .  T
C617        N619   1.157       .  T
C618        N620   1.157       .  T
C623        C624   1.411       .  A
C623       C1474   1.410   1_545  A
C624        C625   1.405       .  A
C624        C629   1.452       .  S
C625        C626   1.411       .  A
C625        C632   1.451       .  S
C626       C1473   1.410   1_545  A
C627        C628   1.405       .  A
C627       C1472   1.409       .  A
C627        C630   1.452       .  S
C628       C1469   1.413       .  A
C628        C631   1.452       .  S
C629        N636   1.158       .  T
C630        N635   1.157       .  T
C631        N633   1.157       .  T
C632        N634   1.157       .  T
C637        C642   1.405       .  A
C637       C1484   1.407       .  A
C638        C639   1.404       .  A
C638       C1483   1.409       .  A
C638        C643   1.451       .  S
C639        C640   1.412       .  A
C639        C646   1.452       .  S
C640        C641   1.416       .  A
C641       C1488   1.403       .  A
C641        C644   1.453       .  S
C642       C1487   1.400       .  A
C642        C645   1.453       .  S
C643        N650   1.157       .  T
C644        N649   1.158       .  T
C645        N647   1.157       .  T
C646        N648   1.157       .  T
C651        C652   1.413       .  A
C651        C656   1.417       .  A
C652       C2345   1.407       .  A
C652        C657   1.450       .  S
C653        C654   1.410       .  A
C653       C2344   1.406       .  A
C653        C660   1.450       .  S
C654       C2347   1.407       .  A
C655        C656   1.398       .  A
C655       C2346   1.407       .  A
C655       C2350   1.455   1_455  S
C656        C659   1.455       .  S
C657        N664   1.157       .  T
C658       C2347   1.454       .  S
C658        N663   1.157       .  T
C659        N661   1.158       .  T
C660        N662   1.157       .  T
C665        C666   1.413       .  A
C665        C670   1.411       .  A
C666        C667   1.406       .  A
C666        C671   1.452       .  S
C667        C668   1.411       .  A
C667        C674   1.452       .  S
C668        C669   1.412       .  A
C669        C670   1.403       .  A
C669        C672   1.452       .  S
C670        C673   1.452       .  S
C671        N678   1.158       .  T
C672        N677   1.157       .  T
C673        N675   1.157       .  T
C674        N676   1.157       .  T
C679        C680   1.411       .  A
C679        C684   1.408       .  A
C679       C1098   1.469   1_545  S
C680        C681   1.403       .  A
C680        C685   1.452       .  S
C681        C682   1.411       .  A
C681        C688   1.453       .  S
C682        C683   1.415       .  A
C683        C684   1.403       .  A
C683        C686   1.453       .  S
C684        C687   1.452       .  S
C685        N692   1.157       .  T
C686        N691   1.158       .  T
C687        N689   1.157   1_545  T
C688        N690   1.158       .  T
C693        C694   1.410       .  A
C693        C698   1.409       .  A
C693       C1935   1.471       .  S
C694        C695   1.407       .  A
C694        C699   1.450       .  S
C695        C696   1.409       .  A
C695        C702   1.451       .  S
C696        C697   1.412       .  A
C697        C698   1.403       .  A
C697        C700   1.453       .  S
C698        C701   1.451       .  S
C699        N706   1.157       .  T
C700        N705   1.157       .  T
C701       N2395   1.157       .  T
C702        N704   1.157       .  T
N703       C2393   1.157       .  T
C707        C708   1.414       .  A
C707        C712   1.416       .  A
C708        C709   1.403       .  A
C708        C713   1.453       .  S
C709        C710   1.411       .  A
C709        C716   1.453       .  S
C710        C711   1.409       .  A
C711        C712   1.407       .  A
C711        C714   1.452       .  S
C712        C715   1.452       .  S
C713        N720   1.157       .  T
C714        N719   1.157       .  T
C715        N717   1.157       .  T
C716        N718   1.157       .  T
C721        C726   1.414       .  A
C721       C2414   1.415       .  A
C722        C723   1.408       .  A
C722       C2413   1.415       .  A
C722        C727   1.452   1_655  S
C723       C2416   1.409       .  A
C723        C730   1.451   1_655  S
C724        C725   1.410       .  A
C724       C2415   1.408       .  A
C725        C726   1.408       .  A
C725        C728   1.451       .  S
C726        C729   1.452       .  S
C727        N734   1.157       .  T
C728        N733   1.157       .  T
C729        N731   1.157       .  T
C730        N732   1.157       .  T
C735        C736   1.413       .  A
C735       C1586   1.421   1_545  A
C736        C737   1.410       .  A
C736        C741   1.451       .  S
C737        C738   1.412       .  A
C737        C744   1.452       .  S
C738       C1585   1.407   1_545  A
C739        C740   1.404       .  A
C739       C1584   1.408       .  A
C739        C742   1.454       .  S
C740       C1581   1.421       .  A
C740        C743   1.453       .  S
C741        N748   1.157       .  T
C742        N747   1.157       .  T
C743       N2437   1.157   1_455  T
C744        N746   1.157       .  T
N745       C2435   1.157       .  T
C749        C750   1.411       .  A
C749        C754   1.410       .  A
C750        C751   1.407       .  A
C750        C755   1.451       .  S
C751        C752   1.407       .  A
C751        C758   1.449       .  S
C752        C753   1.412       .  A
C753        C754   1.399       .  A
C753        C756   1.454       .  S
C754        C757   1.453       .  S
C755        N762   1.157       .  T
C756        N761   1.157       .  T
C757        N759   1.157       .  T
C758        N760   1.157       .  T
C763        C764   1.408       .  A
C763        C768   1.410       .  A
C764       C2457   1.409       .  A
C764        C769   1.450       .  S
C765        C766   1.412       .  A
C765       C2456   1.409       .  A
C765        C772   1.450       .  S
C766       C2459   1.410       .  A
C767        C768   1.404       .  A
C767       C2458   1.410       .  A
C767        C770   1.452       .  S
C768        C771   1.452       .  S
C769        N776   1.157       .  T
C770        N775   1.157       .  T
C771        N773   1.157       .  T
C772        N774   1.157       .  T
C777        C778   1.413       .  A
C777        C782   1.412       .  A
C778        C779   1.409       .  A
C778        C783   1.451       .  S
C779        C780   1.410       .  A
C779        C786   1.451       .  S
C780        C781   1.411       .  A
C781        C782   1.407       .  A
C781        C784   1.452       .  S
C782        C785   1.451       .  S
C783        N790   1.157       .  T
C784        N789   1.157       .  T
C785        N787   1.157       .  T
C786        N788   1.157       .  T
C791        C792   1.408       .  A
C791        C796   1.408       .  A
C791        C882   1.467       .  S
C792        C793   1.407       .  A
C792        C797   1.451       .  S
C793        C794   1.413       .  A
C793        C800   1.451       .  S
C794        C795   1.413       .  A
C795        C796   1.401       .  A
C795        C798   1.453       .  S
C796        C799   1.453       .  S
C797       N1650   1.157       .  T
C798        N803   1.157       .  T
C799        N801   1.157       .  T
C800        N802   1.157       .  T
N804       C1643   1.157   1_545  T
C805        C806   1.418       .  A
C805        C810   1.416       .  A
C805        C869   1.493       .  S
C806        C807   1.398       .  A
C806       C1657   1.449       .  S
C807        C808   1.403       .  A
C807        C814   1.449       .  S
C808        C809   1.422       .  A
C809        C810   1.409       .  A
C809        C812   1.452       .  S
C810        C813   1.453       .  S
C811       C1652   1.451       .  S
C811        N818   1.157       .  T
C812        N817   1.158       .  T
C813        N815   1.158       .  T
C814        N816   1.157       .  T
C819        C820   1.410       .  A
C819        C824   1.406       .  A
C820        C821   1.392       .  A
C820        C825   1.455       .  S
C821        C822   1.407       .  A
C821        C828   1.454       .  S
C822        C823   1.409       .  A
C823        C824   1.406       .  A
C823        C826   1.450       .  S
C824        C827   1.449       .  S
C825        N832   1.157       .  T
C826        N831   1.157       .  T
C827        N829   1.157       .  T
C828        N830   1.157       .  T
C833        C834   1.419       .  A
C833        C838   1.412       .  A
C834        C835   1.399       .  A
C834        C839   1.455       .  S
C835        C836   1.408       .  A
C835        C842   1.446       .  S
C836        C837   1.418       .  A
C837        C838   1.409       .  A
C837        C840   1.452       .  S
C838        C841   1.451       .  S
C839        N846   1.158       .  T
C840        N845   1.157       .  T
C841       N2535   1.157       .  T
C842        N844   1.157       .  T
N843       C2533   1.157       .  T
C847        C848   1.429       .  A
C847        C852   1.405       .  A
C847       C1331   1.483       .  S
C848        C849   1.423       .  A
C848        H853   1.082       .  S
C849       C2542   1.389       .  A
C849        C935   1.485       .  S
C850       C2541   1.391       .  A
C850        C851   1.386       .  A
C850        H854   1.080       .  S
C851       C2544   1.394       .  A
C851       C1679   1.486       .  S
C852       C2543   1.393       .  A
C852        H855   1.085       .  S
C856        C857   1.395       .  A
C856        C861   1.438       .  A
C856       C1333   1.491       .  S
C857        C858   1.378       .  A
C857        H862   1.086       .  S
C858        C859   1.378       .  A
C858       C1668   1.456       .  S
C859        C860   1.400       .  A
C859        H863   1.086       .  S
C860        C861   1.437       .  A
C860        C936   1.501       .  S
C861        H864   1.082       .  S
C865        C866   1.417       .  A
C865        C870   1.401   1_565  A
C865        C937   1.471       .  S
C866        C867   1.412       .  A
C866        H871   1.083       .  S
C867        C868   1.396       .  A
C867       C1332   1.475       .  S
C868        C869   1.392   1_565  A
C868        H872   1.083       .  S
C869        C870   1.399       .  A
C870        H873   1.084       .  S
C874       C1682   1.491       .  S
C874        N875   1.363       .  A
C874        N879   1.355       .  A
N875        C876   1.363       .  A
C876       C1654   1.487       .  S
C876        N877   1.346       .  A
N877        C878   1.345       .  A
C878       C1665   1.449       .  S
C878        N879   1.348       .  A
C880        C881   1.393       .  A
C880        C885   1.423       .  A
C880        C956   1.477       .  S
C881        C882   1.387       .  A
C882        C883   1.390       .  A
C883        C884   1.402       .  A
C883        H887   1.085       .  S
C884        C885   1.426       .  A
C884       C1048   1.485       .  S
C885        H888   1.083       .  S
C889        C890   1.424       .  A
C889        C894   1.404       .  A
C889       C1040   1.484       .  S
C890        C891   1.425       .  A
C890        H895   1.083       .  S
C891        C892   1.399       .  A
C891        C941   1.484       .  S
C892        C893   1.384       .  A
C892        H896   1.086       .  S
C893        C894   1.387       .  A
C893       C1626   1.471       .  S
C894        H897   1.085       .  S
C898       C1623   1.471       .  S
C898        N899   1.354       .  A
C898        N903   1.358       .  A
N899        C900   1.353       .  A
C900       C1640   1.464       .  S
C900        N901   1.350       .  A
N901        C902   1.352       .  A
C902       C1609   1.467       .  S
C902        N903   1.357       .  A
C904        C905   1.394       .  A
C904        C909   1.421       .  A
C904       C1055   1.473       .  S
C905        C906   1.386       .  A
C905        H910   1.086       .  S
C906        C907   1.392       .  A
C906       C1612   1.471       .  S
C907        C908   1.404       .  A
C907        H911   1.085       .  S
C908        C909   1.422       .  A
C908        C949   1.481       .  S
C909        H912   1.083       .  S
Zr913       O914   2.440   1_545  S
Zr913      O2608   2.475   1_545  S
Zr913       O919   2.476   1_545  S
Zr913      O1767   2.384       .  S
Zr913       O923   2.427   1_545  S
Zr913       O924   2.394   1_545  S
O914        H970   0.990   1_565  S
O914        H978   0.990       .  S
O915       C2627   1.292       .  A
O916      Zr2605   2.480   1_465  S
O916        C937   1.292       .  A
O917       Zr927   2.468   1_565  S
O917        C936   1.287       .  A
O918        C937   1.280       .  A
O919        C936   1.298       .  A
O920       Zr928   2.425       .  S
O920        C935   1.272       .  A
O921      Zr1759   2.391   1_455  S
O921       Zr926   2.408   1_554  S
O921       Zr928   2.387       .  S
O922      Zr2620   2.384   1_554  S
O922        H957   0.962       .  S
O923      Zr1772   2.403   1_554  S
O923       Zr943   2.408       .  S
O923        H960   0.965       .  S
O924       Zr927   2.378   1_565  S
O924       Zr943   2.378       .  S
Zr925      O2642   2.442       .  S
Zr925       O952   2.490       .  S
Zr925      O2632   2.471       .  S
Zr925       O931   2.419       .  S
Zr925      O2624   2.423       .  S
Zr926       O938   2.435       .  S
Zr926       O939   2.441       .  S
Zr926      O1769   2.403   1_456  S
Zr926       O932   2.399       .  S
Zr926      O1779   2.385   1_455  S
Zr927       O929   2.436   1_545  S
Zr927       O934   2.419   1_544  S
Zr928      O2646   2.434       .  S
Zr928       O955   2.437   1_554  S
Zr928       O930   2.435   1_554  S
Zr928      O2614   2.383   1_455  S
Zr928      O2623   2.399   1_454  S
Zr928       O932   2.371   1_554  S
O929        H966   0.990       .  S
O930        H961   0.990       .  S
O930        H975   0.989       .  S
O931      Zr2620   2.400       .  S
O932      Zr2617   2.425   1_455  S
O932        H958   0.962       .  S
O933      Zr1772   2.388       .  S
O933       Zr943   2.379   1_556  S
O934       Zr943   2.384   1_556  S
O934        H959   0.966       .  S
C935       O2607   1.292       .  A
O938        H974   0.990       .  S
O939        C941   1.283       .  A
O940      Zr2617   2.475   1_455  S
O940        C941   1.297       .  A
O942       Zr943   2.439       .  S
O942        H971   0.991       .  S
Zr943       O946   2.438       .  S
Zr943       O947   2.436       .  S
Zr943       O948   2.419   1_554  S
O944        C949   1.290       .  A
O945        H962   0.990       .  S
O945        H977   0.990   1_556  S
O946        H963   0.990   1_554  S
O947        H967   0.990   1_554  S
O947        H976   0.990       .  S
O948        C949   1.277       .  A
O950      Zr2617   2.441       .  S
O950       H2661   0.990       .  S
O950        H973   0.990       .  S
O951        H965   0.990       .  S
O951        H972   0.990       .  S
O952        C956   1.294       .  A
O953        C956   1.279       .  A
O954      Zr2620   2.435   1_554  S
O954        H964   0.990       .  S
O955        H968   0.990       .  S
H969       O2642   0.990       .  S
C979        C980   1.395       .  A
C979        C984   1.424       .  A
C979       C1135   1.485       .  S
C980        C981   1.384       .  A
C980        H985   1.086       .  S
C981        C982   1.392       .  A
C981       C1595   1.469       .  S
C982        C983   1.402       .  A
C982        H986   1.085       .  S
C983        C984   1.431       .  A
C983       C1034   1.488       .  S
C984        H987   1.082       .  S
C988        C989   1.423       .  A
C988        C993   1.398       .  A
C988       C1036   1.474       .  S
C989        H994   1.083       .  S
C990        C991   1.402       .  A
C990       C1133   1.486       .  S
C991        H995   1.076       .  S
C992        C993   1.390       .  A
C992       C1584   1.484       .  S
C993        H996   1.085       .  S
C997        C998   1.408       .  A
C997       C1002   1.421       .  A
C997       C1035   1.484       .  S
C998        C999   1.390       .  A
C998       H1003   1.084       .  S
C999       C2692   1.386       .  A
C999       C1570   1.474       .  S
C1000      C2691   1.385   1_455  A
C1000      C1001   1.397       .  A
C1000      H1004   1.085       .  S
C1001      C2694   1.420   1_455  A
C1001      C1134   1.480       .  S
C1002      C2693   1.420       .  A
C1002      H1005   1.083       .  S
C1006      C1567   1.476       .  S
C1006      N2699   1.360       .  A
C1006      N1011   1.354       .  A
N1007      C2698   1.360   1_455  A
N1007      C1008   1.359       .  A
C1008      C1581   1.486       .  S
C1008      N1855   1.354   1_455  A
N1009      C1854   1.354   1_565  A
N1009      C1010   1.349       .  A
C1010      C1598   1.459       .  S
Zr1012     O1013   2.440       .  S
Zr1012     O1014   2.486       .  S
Zr1012     O1015   2.465       .  S
Zr1012     O1018   2.454       .  S
Zr1012     O1020   2.378       .  S
Zr1012     O1021   2.391       .  S
Zr1012     O1022   2.427       .  S
Zr1012     O1023   2.393       .  S
O1013      H1069   0.990       .  S
O1013      H1077   0.991       .  S
O1014      C1034   1.295       .  A
O1015      C1036   1.288       .  A
O1016     Zr1026   2.464       .  S
O1016      C1035   1.289       .  A
O1017     Zr1025   2.427       .  S
O1017      C1036   1.282       .  A
O1018      C1035   1.291       .  A
O1019     Zr1027   2.416       .  S
O1019      C1034   1.277       .  A
O1020     Zr1025   2.411       .  S
O1020     Zr1027   2.391       .  S
O1021     Zr1026   2.396       .  S
O1021     Zr1027   2.379       .  S
O1021      H1056   0.965       .  S
O1022     Zr1025   2.401       .  S
O1022     Zr1042   2.415       .  S
O1022      H1059   0.965       .  S
O1023     Zr1026   2.374       .  S
O1023     Zr1042   2.372       .  S
Zr1024     O1049   2.440       .  S
Zr1024     O1043   2.476       .  S
Zr1024     O1051   2.451       .  S
Zr1024     O1039   2.470       .  S
Zr1024     O1030   2.419       .  S
Zr1024     O1031   2.420       .  S
Zr1024     O1032   2.377       .  S
Zr1024     O1033   2.391       .  S
Zr1025     O1044   2.438       .  S
Zr1025     O1037   2.433       .  S
Zr1025     O1038   2.448       .  S
Zr1025     O1031   2.402       .  S
Zr1025     O1032   2.395       .  S
Zr1026     O1028   2.435       .  S
Zr1026     O1050   2.439       .  S
Zr1026     O1052   2.432       .  S
Zr1026     O1030   2.395       .  S
Zr1026     O1033   2.410       .  S
Zr1027     O1053   2.434       .  S
Zr1027     O1054   2.442       .  S
Zr1027     O1029   2.441       .  S
Zr1027     O1030   2.402       .  S
Zr1027     O1031   2.370       .  S
O1028      H1065   0.990       .  S
O1029      H1060   0.990       .  S
O1029      H1074   0.990       .  S
O1031      H1057   0.961       .  S
O1032     Zr1042   2.386       .  S
O1033     Zr1042   2.386       .  S
O1033      H1058   0.966       .  S
O1037      H1073   0.990       .  S
O1038      C1040   1.285       .  A
O1039      C1040   1.295       .  A
O1041     Zr1042   2.440       .  S
O1041      H1070   0.991       .  S
Zr1042     O1045   2.438       .  S
Zr1042     O1046   2.441       .  S
Zr1042     O1047   2.418       .  S
O1043      C1048   1.292       .  A
O1044      H1061   0.990       .  S
O1044      H1076   0.990       .  S
O1045      H1062   0.990       .  S
O1046      H1066   0.990       .  S
O1046      H1075   0.990       .  S
O1047      C1048   1.276       .  A
O1049      H1068   0.991       .  S
O1049      H1072   0.990       .  S
O1050      H1064   0.990       .  S
O1050      H1071   0.990       .  S
O1051      C1055   1.286       .  A
O1052      C1055   1.284       .  A
O1053      H1063   0.990       .  S
O1054      H1067   0.990       .  S
C1078      C1079   1.404       .  A
C1078      C1083   1.429       .  A
C1078      C1246   1.492       .  S
C1079      C1080   1.395       .  A
C1079      H1084   1.085       .  S
C1080      C1081   1.389       .  A
C1080      C1556   1.478       .  S
C1081      C1082   1.395       .  A
C1081      H1085   1.086       .  S
C1082      C1083   1.427       .  A
C1082      C1147   1.486       .  S
C1083      H1086   1.082       .  S
C1087      C1088   1.400   1_455  A
C1087      C1092   1.419       .  A
C1087      C1154   1.468       .  S
C1088      C1089   1.386       .  A
C1088      H1093   1.086       .  S
C1089      C1090   1.387       .  A
C1089      C3231   1.476       .  S
C1090      C1091   1.407   1_655  A
C1090      H2786   1.085       .  S
C1091      C1092   1.418       .  A
C1091      C1238   1.480       .  S
C1092      H1095   1.083       .  S
H1094      C2782   1.084       .  S
C1096      C1097   1.395       .  A
C1096      C1101   1.425       .  A
C1097      C1098   1.385       .  A
C1098      C1099   1.386       .  A
C1099      C1100   1.403       .  A
C1099      H1103   1.084       .  S
C1100      C1101   1.422       .  A
C1100      C1139   1.487       .  S
C1101      H1104   1.082       .  S
C1105      C1553   1.478       .  S
C1105      N1106   1.359       .  A
C1105      N1110   1.354       .  A
N1106      C1107   1.357       .  A
C1107      C1542   1.473       .  S
C1107      N1108   1.354       .  A
N1108      C1109   1.353       .  A
C1109      C1528   1.475       .  S
C1109      N1110   1.353       .  A
Zr1111     O1112   2.441       .  S
Zr1111     O1113   2.492       .  S
Zr1111     O1114   2.496       .  S
Zr1111     O1117   2.471       .  S
Zr1111     O1119   2.398       .  S
Zr1111     O1120   2.389       .  S
Zr1111     O1121   2.434       .  S
Zr1111     O1122   2.403       .  S
O1112      H1168   0.990       .  S
O1112      H1176   0.990       .  S
O1113      C1133   1.291       .  A
O1114      C1135   1.292       .  A
O1115     Zr1125   2.441       .  S
O1115      C1134   1.282       .  A
O1116     Zr1124   2.402       .  S
O1116      C1135   1.280       .  A
O1117      C1134   1.296       .  A
O1118     Zr1126   2.423       .  S
O1118      C1133   1.274       .  A
O1119     Zr1124   2.421       .  S
O1119     Zr1126   2.391       .  S
O1120     Zr1125   2.367       .  S
O1120     Zr1126   2.367       .  S
O1120      H1155   0.957       .  S
O1121     Zr1124   2.411       .  S
O1121     Zr1141   2.417       .  S
O1121      H1158   0.965       .  S
O1122     Zr1125   2.389       .  S
O1122     Zr1141   2.375       .  S
Zr1123     O1148   2.438       .  S
Zr1123     O1142   2.485       .  S
Zr1123     O1150   2.456       .  S
Zr1123     O1138   2.472       .  S
Zr1123     O1129   2.424       .  S
Zr1123     O1130   2.416       .  S
Zr1123     O1131   2.380       .  S
Zr1123     O1132   2.389       .  S
Zr1124     O1143   2.436       .  S
Zr1124     O1136   2.435       .  S
Zr1124     O1137   2.462       .  S
Zr1124     O1130   2.395       .  S
Zr1124     O1131   2.389       .  S
Zr1125     O1127   2.437       .  S
Zr1125     O1149   2.443       .  S
Zr1125     O1151   2.408       .  S
Zr1125     O1129   2.393       .  S
Zr1125     O1132   2.400       .  S
Zr1126     O1152   2.435       .  S
Zr1126     O1153   2.437       .  S
Zr1126     O1128   2.440       .  S
Zr1126     O1129   2.407       .  S
Zr1126     O1130   2.362       .  S
O1127      H2856   0.990   1_455  S
O1128      H1159   0.990       .  S
O1128      H1173   0.990       .  S
O1130      H1156   0.958       .  S
O1131     Zr1141   2.392       .  S
O1132     Zr1141   2.381       .  S
O1132      H1157   0.966       .  S
O1136      H1172   0.990       .  S
O1137      C1139   1.288       .  A
O1138      C1139   1.294       .  A
O1140     Zr1141   2.441       .  S
O1140      H1169   0.991       .  S
Zr1141     O1144   2.437       .  S
Zr1141     O1145   2.438       .  S
Zr1141     O1146   2.421       .  S
O1142      C1147   1.293       .  A
O1143      H1160   0.990       .  S
O1143      H1175   0.990       .  S
O1144      H1161   0.990       .  S
O1145      H1165   0.990       .  S
O1145      H1174   0.990       .  S
O1146      C1147   1.274       .  A
O1148      H1167   0.991       .  S
O1148      H1171   0.990       .  S
O1149      H1163   0.990       .  S
O1149      H1170   0.990       .  S
O1150      C1154   1.287       .  A
O1151      C1154   1.281       .  A
O1152      H1162   0.990   1_565  S
O1153      H1166   0.990       .  S
H1164      O2819   0.990       .  S
C1177      C1178   1.426       .  A
C1177      C1182   1.401       .  A
C1177      C1232   1.485       .  S
C1178      C1179   1.424       .  A
C1178      H1183   1.082       .  S
C1179      C1180   1.394       .  A
C1179      C1397   1.486       .  S
C1180      C1181   1.387       .  A
C1180      H1184   1.081       .  S
C1181      C1182   1.392       .  A
C1181      C1514   1.475       .  S
C1182      H1185   1.084       .  S
C1186      C1187   1.399       .  A
C1186      C1191   1.426       .  A
C1186      C1399   1.480       .  S
C1187      C1188   1.384       .  A
C1187      H1192   1.086       .  S
C1188      C1189   1.381       .  A
C1188      C1500   1.466       .  S
C1189      C1190   1.402       .  A
C1189      H1193   1.085       .  S
C1190      C1191   1.426       .  A
C1190      C1233   1.487       .  S
C1191      H1194   1.083       .  S
C1195      C1196   1.399       .  A
C1195      C1200   1.426       .  A
C1195      C1234   1.476       .  S
C1196      C1197   1.389       .  A
C1196      H1201   1.085       .  S
C1197      C1198   1.383       .  A
C1197      C1483   1.467       .  S
C1198      C1199   1.398       .  A
C1198      H1202   1.086       .  S
C1199      C1200   1.421       .  A
C1199      C1398   1.483       .  S
C1200      H1203   1.083       .  S
C1204      C1511   1.471       .  S
C1204      N1205   1.353       .  A
C1204      N1209   1.359       .  A
N1205      C1206   1.348       .  A
C1206      C1486   1.463       .  S
C1206      N1207   1.347       .  A
N1207      C1208   1.351       .  A
C1208      C1497   1.474       .  S
C1208      N1209   1.357       .  A
Zr1210     O2903   2.443       .  S
Zr1210     O2905   2.468       .  S
Zr1210     O1216   2.454       .  S
Zr1210     O2912   2.429       .  S
Zr1210     O1221   2.397       .  S
O1211     Zr2902   2.441       .  S
O1211      H1267   0.990   1_655  S
O1211      H1275   0.991   1_655  S
O1212      C1232   1.290       .  A
O1213     Zr2902   2.471   1_455  S
O1213      C1234   1.290       .  A
O1214     Zr1224   2.460       .  S
O1214      C1233   1.287       .  A
O1215     Zr1223   2.435       .  S
O1215      C1234   1.285       .  A
O1216      C1233   1.293       .  A
O1217     Zr1225   2.417       .  S
O1217      C1232   1.272       .  A
O1218     Zr2069   2.415   1_565  S
O1218     Zr1225   2.390       .  S
O1219     Zr1225   2.377       .  S
O1219      H1254   0.965       .  S
O1220     Zr2902   2.425   1_455  S
O1220     Zr1223   2.408       .  S
O1220     Zr1240   2.403       .  S
O1220      H1257   0.964       .  S
O1221     Zr1224   2.379       .  S
O1221     Zr2932   2.375       .  S
Zr1222     O1247   2.440   1_545  S
Zr1222     O1249   2.466   1_545  S
Zr1222     O2929   2.450   1_545  S
Zr1222     O1228   2.411   1_545  S
Zr1222     O1229   2.422   1_545  S
Zr1222     O2076   2.379       .  S
Zr1223     O1242   2.437       .  S
Zr1223     O2064   2.413   1_455  S
Zr1223     O2075   2.404   1_455  S
Zr1223     O1230   2.399       .  S
Zr1224     O1226   2.437       .  S
Zr1224     O1250   2.421       .  S
Zr1224     O1231   2.410       .  S
Zr1225     O1251   2.437       .  S
Zr1225     O1252   2.436       .  S
Zr1225     O1227   2.434       .  S
Zr1225     O1228   2.397       .  S
Zr1225     O1229   2.365       .  S
O1226      H1263   0.990       .  S
O1227      H1258   0.990       .  S
O1227      H1272   0.990       .  S
O1229     Zr2069   2.406   1_565  S
O1229      H1255   0.960       .  S
O1230     Zr2068   2.375   1_455  S
O1230     Zr1240   2.389       .  S
O1231     Zr2932   2.381       .  S
O1231      H1256   0.966       .  S
O1235      H1271   0.990       .  S
O1236      C1238   1.286       .  A
O1237     Zr2914   2.458   1_565  S
O1237      C1238   1.291   1_655  A
O1239     Zr1240   2.439       .  S
O1239      H1268   0.990       .  S
Zr1240     O1243   2.438       .  S
Zr1240     O1244   2.439   1_455  S
Zr1240     O1245   2.418       .  S
Zr1240     O2913   2.373   1_455  S
Zr1240     O2923   2.386   1_455  S
O1241      C2938   1.294       .  A
O1242      H1259   0.990       .  S
O1242      H1274   0.990       .  S
O1243      H1260   0.990       .  S
O1244      H1264   0.990       .  S
O1244      H2965   0.990       .  S
O1245      C1246   1.277       .  A
C1246      O2933   1.295   1_455  A
O1247      H1266   0.991       .  S
O1247      H1270   0.990   1_565  S
O1248      H1262   0.990       .  S
O1248      H1269   0.990       .  S
O1250      C1253   1.283       .  A
O1251      H1261   0.990       .  S
O1252      H1265   0.990       .  S
H1273      O2936   0.990       .  S
C1276      C1281   1.402       .  A
C1276      C1345   1.484       .  S
C1277      C1278   1.423       .  A
C1277      H1282   1.083       .  S
C1278      C1279   1.397       .  A
C1278      C1411   1.483       .  S
C1279      C1280   1.391       .  A
C1279      H1283   1.085       .  S
C1280      C1472   1.474       .  S
C1281      H1284   1.085       .  S
C1285      C1286   1.402       .  A
C1285      C1290   1.424       .  A
C1285      C1418   1.478       .  S
C1286      C1287   1.388       .  A
C1286      H1291   1.085       .  S
C1287      C1288   1.385       .  A
C1287      C1458   1.476       .  S
C1288      C1289   1.406       .  A
C1288      H1292   1.085       .  S
C1289      C1290   1.422       .  A
C1289      C1337   1.487       .  S
C1290      H1293   1.082       .  S
C1294      C1295   1.396       .  A
C1294      C2991   1.425       .  A
C1294      C1352   1.475   1_655  S
C1295      C2988   1.385       .  A
C1295      H1300   1.086   1_655  S
C1296      C2987   1.388       .  A
C1296      C1297   1.385       .  A
C1296      C1441   1.470       .  S
C1297      C1298   1.402       .  A
C1297      H1301   1.085       .  S
C1298      C1299   1.424       .  A
C1298      C1403   1.489       .  S
C1299      C2986   1.427       .  A
C1299      H1302   1.082       .  S
C1303      C1469   1.475       .  S
C1303      N1304   1.359       .  A
N1304      C2997   1.359       .  A
C1305      C1455   1.475   1_655  S
C1305      N2996   1.357       .  A
C1305      N1306   1.354       .  A
N1306      C2153   1.351       .  A
C1307      C1444   1.469       .  S
C1307      N2152   1.352   1_565  A
C1307      N1308   1.351       .  A
Zr1309     O1310   2.439       .  S
Zr1309     O1311   2.491       .  S
Zr1309     O1312   2.493       .  S
Zr1309     O1315   2.474       .  S
Zr1309     O1317   2.389       .  S
Zr1309     O1318   2.395       .  S
Zr1309     O1319   2.429       .  S
Zr1309     O1320   2.396       .  S
O1310      H1366   0.990       .  S
O1310      H1374   0.988       .  S
O1311      C1331   1.294       .  A
O1312      C1333   1.293       .  A
O1313     Zr1323   2.440       .  S
O1313      C1332   1.283       .  A
O1314     Zr1322   2.434       .  S
O1314      C1333   1.288       .  A
O1315      C1332   1.296       .  A
O1316     Zr1324   2.411       .  S
O1316      C1331   1.276       .  A
O1317     Zr1322   2.412       .  S
O1317     Zr1324   2.391       .  S
O1318     Zr1323   2.393       .  S
O1318     Zr1324   2.376       .  S
O1318      H1353   0.965       .  S
O1319     Zr1322   2.410       .  S
O1319     Zr1339   2.407       .  S
O1319      H1356   0.964       .  S
O1320     Zr1323   2.384       .  S
O1320     Zr1339   2.373       .  S
Zr1321     O1346   2.443       .  S
Zr1321     O1340   2.489       .  S
Zr1321     O1348   2.478       .  S
Zr1321     O1336   2.448       .  S
Zr1321     O1327   2.422       .  S
Zr1321     O1328   2.419       .  S
Zr1321     O1329   2.377       .  S
Zr1321     O1330   2.387       .  S
Zr1322     O1341   2.436       .  S
Zr1322     O1334   2.434       .  S
Zr1322     O1335   2.476       .  S
Zr1322     O1328   2.397       .  S
Zr1322     O1329   2.396       .  S
Zr1323     O1325   2.437       .  S
Zr1323     O1347   2.438       .  S
Zr1323     O1349   2.417       .  S
Zr1323     O1327   2.394       .  S
Zr1323     O1330   2.409       .  S
Zr1324     O1350   2.434       .  S
Zr1324     O1351   2.437       .  S
Zr1324     O1326   2.440       .  S
Zr1324     O1327   2.402       .  S
Zr1324     O1328   2.360       .  S
O1325      H1362   0.990       .  S
O1326      H1357   0.990       .  S
O1326      H1371   0.990       .  S
O1328      H1354   0.960       .  S
O1329     Zr1339   2.386       .  S
O1330     Zr1339   2.383       .  S
O1330      H1355   0.966       .  S
O1334      H1370   0.990       .  S
O1335      C1337   1.291       .  A
O1336      C1337   1.291       .  A
O1338     Zr1339   2.433       .  S
O1338      H1367   0.991   1_565  S
Zr1339     O1342   2.436       .  S
Zr1339     O1343   2.441       .  S
Zr1339     O1344   2.405       .  S
O1340      C1345   1.291       .  A
O1341      H1358   0.990       .  S
O1341      H1373   0.990       .  S
O1342      H1359   0.989       .  S
O1343      H1363   0.990       .  S
O1343      H1372   0.989       .  S
O1344      C1345   1.269       .  A
O1346      H1365   0.990       .  S
O1346      H1369   0.991       .  S
O1347      H1361   0.990       .  S
O1347      H1368   0.990   1_455  S
O1348      C1352   1.291       .  A
O1349      C1352   1.281       .  A
O1350      H1360   0.990       .  S
O1351      H1364   0.990       .  S
Zr1375     O1376   2.440       .  S
Zr1375     O1377   2.477       .  S
Zr1375     O1378   2.466       .  S
Zr1375     O1381   2.469       .  S
Zr1375     O1383   2.390       .  S
Zr1375     O1384   2.398       .  S
Zr1375     O1385   2.428       .  S
Zr1375     O1386   2.395       .  S
O1376      H1432   0.990       .  S
O1376      H1440   0.991       .  S
O1377      C1397   1.290       .  A
O1378      C1399   1.288       .  A
O1379     Zr1389   2.449       .  S
O1379      C1398   1.285       .  A
O1380     Zr1388   2.424       .  S
O1380      C1399   1.285       .  A
O1381      C1398   1.294       .  A
O1382     Zr1390   2.427       .  S
O1382      C1397   1.272       .  A
O1383     Zr1388   2.405       .  S
O1383     Zr1390   2.384       .  S
O1384     Zr1389   2.386       .  S
O1384     Zr1390   2.378       .  S
O1384      H1419   0.961       .  S
O1385     Zr1388   2.402       .  S
O1385     Zr1405   2.410       .  S
O1385      H1422   0.965       .  S
O1386     Zr1389   2.387       .  S
O1386     Zr1405   2.371       .  S
Zr1387     O1412   2.440       .  S
Zr1387     O1406   2.481       .  S
Zr1387     O1414   2.466       .  S
Zr1387     O1402   2.473       .  S
Zr1387     O1393   2.429       .  S
Zr1387     O1394   2.419       .  S
Zr1387     O1395   2.381       .  S
Zr1387     O1396   2.391       .  S
Zr1388     O1407   2.436       .  S
Zr1388     O1400   2.434       .  S
Zr1388     O1401   2.460       .  S
Zr1388     O1394   2.398       .  S
Zr1388     O1395   2.394       .  S
Zr1389     O1391   2.434       .  S
Zr1389     O1413   2.441       .  S
Zr1389     O1415   2.418       .  S
Zr1389     O1393   2.394       .  S
Zr1389     O1396   2.406       .  S
Zr1390     O1416   2.433       .  S
Zr1390     O1417   2.437       .  S
Zr1390     O1392   2.435       .  S
Zr1390     O1393   2.413       .  S
Zr1390     O1394   2.365       .  S
O1391      H1428   0.990       .  S
O1392      H1423   0.990       .  S
O1392      H1437   0.990       .  S
O1394      H1420   0.959       .  S
O1395     Zr1405   2.391       .  S
O1396     Zr1405   2.388       .  S
O1396      H1421   0.966       .  S
O1400      H1436   0.990       .  S
O1401      C1403   1.287       .  A
O1402      C1403   1.295       .  A
O1404     Zr1405   2.441       .  S
O1404      H1433   0.991       .  S
Zr1405     O1408   2.439       .  S
Zr1405     O1409   2.439       .  S
Zr1405     O1410   2.413       .  S
O1406      C1411   1.292       .  A
O1407      H1424   0.990       .  S
O1407      H1439   0.990       .  S
O1408      H1425   0.988       .  S
O1409      H1429   0.990       .  S
O1409      H1438   0.989       .  S
O1410      C1411   1.271       .  A
O1412      H1431   0.991       .  S
O1412      H1435   0.990       .  S
O1413      H1427   0.990       .  S
O1413      H1434   0.990       .  S
O1414      C1418   1.289       .  A
O1415      C1418   1.282       .  A
O1416      H1426   0.990       .  S
O1417      H1430   0.990       .  S
C1441      C3134   1.410       .  A
C1441      C1446   1.408       .  A
C1442      C3133   1.410       .  A
C1442      C1443   1.404       .  A
C1442      C1447   1.451       .  S
C1443      C3136   1.411       .  A
C1443      C1450   1.452       .  S
C1444      C3135   1.411       .  A
C1444      C1445   1.414       .  A
C1445      C1446   1.404       .  A
C1445      C1448   1.452       .  S
C1446      C1449   1.452       .  S
C1447      N1454   1.157       .  T
C1448      N1453   1.157       .  T
C1449      N1451   1.157       .  T
C1450      N1452   1.157       .  T
C1455      C1456   1.413       .  A
C1455      C1460   1.413       .  A
C1456      C1457   1.410       .  A
C1456      C1461   1.451   1_455  S
C1457      C1458   1.411       .  A
C1457      C1464   1.450       .  S
C1458      C1459   1.409       .  A
C1459      C1460   1.402       .  A
C1459      C1462   1.452       .  S
C1460      C1463   1.453       .  S
C1461      N1468   1.158       .  T
C1462      N1467   1.157       .  T
C1463      N1465   1.157       .  T
C1464      N1466   1.157       .  T
C1469      C1470   1.413       .  A
C1470      C1471   1.408       .  A
C1470      C1475   1.451       .  S
C1471      C1472   1.410       .  A
C1471      C1478   1.452       .  S
C1473      C1474   1.403       .  A
C1473      C1476   1.451       .  S
C1474      C1477   1.453       .  S
C1475      N1482   1.157       .  T
C1476      N1481   1.157       .  T
C1477      N1479   1.157       .  T
C1478      N1480   1.157       .  T
C1483      C1488   1.407       .  A
C1484      C1485   1.401       .  A
C1484      C1489   1.451       .  S
C1485      C1486   1.411       .  A
C1485      C1492   1.452       .  S
C1486      C1487   1.415       .  A
C1487      C1490   1.452       .  S
C1488      C1491   1.452       .  S
C1489      N1496   1.157       .  T
C1490      N1495   1.157       .  T
C1491      N1493   1.157       .  T
C1492      N1494   1.157       .  T
C1497      C1498   1.413       .  A
C1497      C1502   1.418       .  A
C1498      C3191   1.407       .  A
C1498      C1503   1.451       .  S
C1499      C3190   1.407       .  A
C1499      C1500   1.409       .  A
C1499      C1506   1.450       .  S
C1500      C3193   1.407       .  A
C1501      C3192   1.407       .  A
C1501      C1502   1.399       .  A
C1501      C3196   1.455   1_455  S
C1502      C1505   1.454       .  S
C1503      N1510   1.157       .  T
C1504      C3193   1.454       .  S
C1504      N1509   1.157       .  T
C1505      N1507   1.158       .  T
C1506      N1508   1.157       .  T
C1511      C1512   1.413       .  A
C1511      C1516   1.413       .  A
C1512      C1513   1.405       .  A
C1512      C1517   1.452       .  S
C1513      C1514   1.412       .  A
C1513      C1520   1.452       .  S
C1514      C1515   1.411       .  A
C1515      C1516   1.403       .  A
C1515      C1518   1.453       .  S
C1516      C1519   1.453       .  S
C1517      N1524   1.158       .  T
C1518      N1523   1.157       .  T
C1519      N1521   1.157       .  T
C1520      N1522   1.157       .  T
C1525      C1526   1.410       .  A
C1525      C1530   1.408       .  A
C1526      C1527   1.404       .  A
C1526      C1531   1.453       .  S
C1527      C1528   1.414       .  A
C1527      C1534   1.452       .  S
C1528      C1529   1.417       .  A
C1529      C1530   1.403       .  A
C1529      C1532   1.452       .  S
C1530      C1533   1.453       .  S
C1531      N1538   1.157       .  T
C1532      N1537   1.157       .  T
C1533      N1535   1.157       .  T
C1534      N1536   1.157       .  T
C1539      C1540   1.410       .  A
C1539      C1544   1.409       .  A
C1539      C2781   1.475       .  S
C1540      C1541   1.409       .  A
C1540      C1545   1.449       .  S
C1541      C1542   1.411       .  A
C1541      C1548   1.451       .  S
C1542      C1543   1.413       .  A
C1543      C1544   1.405       .  A
C1543      C1546   1.452       .  S
C1544      C1547   1.451       .  S
C1545      N1552   1.157       .  T
C1546      N1551   1.157       .  T
C1547      N3241   1.157       .  T
C1548      N1550   1.157       .  T
N1549      C3239   1.157       .  T
C1553      C1554   1.414       .  A
C1553      C1558   1.414       .  A
C1554      C1555   1.406       .  A
C1554      C1559   1.453       .  S
C1555      C1556   1.412       .  A
C1555      C1562   1.452       .  S
C1556      C1557   1.410       .  A
C1557      C1558   1.407       .  A
C1557      C1560   1.452       .  S
C1558      C1561   1.452       .  S
C1559      N1566   1.158       .  T
C1560      N1565   1.157       .  T
C1561      N1563   1.157       .  T
C1562      N1564   1.157       .  T
C1567      C3260   1.414       .  A
C1567      C1572   1.413       .  A
C1568      C3259   1.414       .  A
C1568      C1569   1.406       .  A
C1568      C1573   1.452   1_655  S
C1569      C3262   1.409       .  A
C1569      C1576   1.451       .  S
C1570      C3261   1.408       .  A
C1570      C1571   1.411       .  A
C1571      C1572   1.407       .  A
C1571      C1574   1.451       .  S
C1572      C1575   1.452       .  S
C1573      N1580   1.157       .  T
C1574      N1579   1.157       .  T
C1575      N1577   1.157       .  T
C1576      N1578   1.157   1_655  T
C1581      C1582   1.415       .  A
C1582      C1583   1.412       .  A
C1582      C1587   1.451       .  S
C1583      C1584   1.412       .  A
C1583      C1590   1.451       .  S
C1585      C1586   1.402       .  A
C1585      C1588   1.454       .  S
C1586      C1589   1.453       .  S
C1587      N1594   1.157       .  T
C1588      N1593   1.157       .  T
C1589      N3283   1.157   1_455  T
C1590      N1592   1.157       .  T
N1591      C3281   1.157       .  T
C1595      C1596   1.413       .  A
C1595      C1600   1.410       .  A
C1596      C1597   1.408       .  A
C1596      C1601   1.450       .  S
C1597      C1598   1.406       .  A
C1597      C1604   1.450       .  S
C1598      C1599   1.410       .  A
C1599      C1600   1.397       .  A
C1599      C1602   1.454       .  S
C1600      C1603   1.452       .  S
C1601      N1608   1.157       .  T
C1602      N1607   1.157       .  T
C1603      N1605   1.157       .  T
C1604      N1606   1.157       .  T
C1609      C1610   1.408       .  A
C1609      C1614   1.412       .  A
C1610      C3303   1.408       .  A
C1610      C1615   1.451       .  S
C1611      C3302   1.408       .  A
C1611      C1612   1.411       .  A
C1611      C1618   1.451       .  S
C1612      C3305   1.409       .  A
C1613      C3304   1.409       .  A
C1613      C1614   1.404       .  A
C1613      C1616   1.452       .  S
C1614      C1617   1.453       .  S
C1615      N1622   1.157       .  T
C1616      N1621   1.157       .  T
C1617      N1619   1.157       .  T
C1618      N1620   1.157       .  T
C1623      C1624   1.414       .  A
C1623      C1628   1.412       .  A
C1624      C1625   1.405       .  A
C1624      C1629   1.451       .  S
C1625      C1626   1.408       .  A
C1625      C1632   1.452       .  S
C1626      C1627   1.410       .  A
C1627      C1628   1.404       .  A
C1627      C1630   1.453       .  S
C1628      C1631   1.452       .  S
C1629      N1636   1.157       .  T
C1630      N1635   1.157       .  T
C1631      N1633   1.157       .  T
C1632      N1634   1.157       .  T
C1637      C1638   1.410       .  A
C1637      C1642   1.409       .  A
C1638      C1639   1.407       .  A
C1638      C1643   1.450       .  S
C1639      C1640   1.410       .  A
C1639      C1646   1.451       .  S
C1640      C1641   1.411       .  A
C1641      C1642   1.401       .  A
C1641      C1644   1.453       .  S
C1642      C1645   1.452       .  S
C1644      N1649   1.157       .  T
C1645      N1647   1.157       .  T
C1646      N1648   1.157       .  T
C1651      C1652   1.419       .  A
C1651      C1656   1.417       .  A
C1652      C1653   1.400       .  A
C1653      C1654   1.405       .  A
C1653      C1660   1.449       .  S
C1654      C1655   1.423       .  A
C1655      C1656   1.408       .  A
C1655      C1658   1.453       .  S
C1656      C1659   1.454       .  S
C1657      N1664   1.156   1_545  T
C1658      N1663   1.158       .  T
C1659      N1661   1.158       .  T
C1660      N1662   1.158       .  T
C1665      C1666   1.410       .  A
C1665      C1670   1.406       .  A
C1666      C1667   1.394       .  A
C1666      C1671   1.454       .  S
C1667      C1668   1.407       .  A
C1667      C1674   1.454       .  S
C1668      C1669   1.407       .  A
C1669      C1670   1.403       .  A
C1669      C1672   1.450       .  S
C1670      C1673   1.449       .  S
C1671      N1678   1.157       .  T
C1672      N1677   1.157       .  T
C1673      N1675   1.157       .  T
C1674      N1676   1.157       .  T
C1679      C1680   1.417       .  A
C1679      C1684   1.412       .  A
C1680      C1681   1.400       .  A
C1680      C1685   1.454       .  S
C1681      C1682   1.408       .  A
C1681      C1688   1.447       .  S
C1682      C1683   1.419       .  A
C1683      C1684   1.409       .  A
C1683      C1686   1.452       .  S
C1684      C1687   1.452       .  S
C1685      N1692   1.158       .  T
C1686      N1691   1.158       .  T
C1687      N3381   1.157       .  T
C1688      N1690   1.157       .  T
N1689      C3379   1.157       .  T
C1693      C1694   1.428       .  A
C1693      C1698   1.406       .  A
C1693      C2177   1.486       .  S
C1694      C1695   1.422       .  A
C1694      H1699   1.083       .  S
C1695      C1781   1.481       .  S
C1696      C1697   1.386       .  A
C1696      H1700   1.079   1_455  S
C1697      C2525   1.492   1_455  S
C1698      H1701   1.084       .  S
C1702      C1703   1.395       .  A
C1702      C1707   1.442       .  A
C1702      C2179   1.500       .  S
C1703      C1704   1.381       .  A
C1703      H1708   1.086       .  S
C1704      C1705   1.379       .  A
C1704      C2514   1.458       .  S
C1705      C1706   1.399       .  A
C1705      H1709   1.086       .  S
C1706      C1707   1.442       .  A
C1706      C1782   1.507       .  S
C1707      H1710   1.082       .  S
C1711      C1712   1.417       .  A
C1711      C1716   1.402       .  A
C1711      C1783   1.470       .  S
C1712      C1713   1.412       .  A
C1712      H1717   1.083       .  S
C1713      C1714   1.396       .  A
C1713      C2178   1.473       .  S
C1714      C1715   1.391       .  A
C1714      H1718   1.083       .  S
C1715      C1716   1.398       .  A
C1715      C3343   1.494       .  S
C1716      H1719   1.084       .  S
C1720      C2528   1.493       .  S
C1720      N1721   1.364       .  A
C1720      N1725   1.354       .  A
N1721      C1722   1.367       .  A
C1722      C2500   1.492       .  S
C1722      N1723   1.348       .  A
N1723      C1724   1.346       .  A
C1724      C2511   1.452       .  S
C1724      N1725   1.346       .  A
C1726      C1727   1.395       .  A
C1726      C1731   1.424       .  A
C1726      C1802   1.480       .  S
C1727      C1728   1.388       .  A
C1727      H2578   1.086   1_545  S
C1728      C1729   1.392       .  A
C1728      C3329   1.469   1_545  S
C1729      C1730   1.402       .  A
C1729      H1733   1.085       .  S
C1730      C1731   1.427       .  A
C1730      C1894   1.487       .  S
C1731      H1734   1.083       .  S
H1732      C2573   1.086       .  S
C1735      C1736   1.425       .  A
C1735      C1740   1.407       .  A
C1735      C1886   1.488       .  S
C1736      C1737   1.426       .  A
C1736      H1741   1.083       .  S
C1737      C1738   1.400       .  A
C1737      C1787   1.488       .  S
C1738      C1739   1.386       .  A
C1738      H1742   1.085       .  S
C1739      C1740   1.390       .  A
C1739      C2472   1.477       .  S
C1740      H1743   1.085       .  S
C1744      C2469   1.474       .  S
C1744      N1745   1.354       .  A
C1744      N1749   1.359       .  A
N1745      C1746   1.354       .  A
C1746      C2486   1.467       .  S
C1746      N1747   1.351       .  A
N1747      C1748   1.353       .  A
C1748      C2455   1.467       .  S
C1748      N1749   1.357       .  A
C1750      C1751   1.395       .  A
C1750      C1755   1.422       .  A
C1750      C1901   1.475       .  S
C1751      C1752   1.388       .  A
C1751      H1756   1.086       .  S
C1752      C1753   1.393       .  A
C1752      C2458   1.474   1_655  S
C1753      C1754   1.404       .  A
C1753      H1757   1.085       .  S
C1754      C1755   1.422       .  A
C1754      C1795   1.482       .  S
C1755      H1758   1.083       .  S
Zr1759     O1760   2.439       .  S
Zr1759     O2607   2.487   1_655  S
Zr1759     O1765   2.491       .  S
Zr1759     O2614   2.391       .  S
Zr1759     O1769   2.428       .  S
Zr1759     O1770   2.393       .  S
O1760      H1816   0.990   1_655  S
O1760      H1824   0.990       .  S
O1761     Zr2605   2.485   1_455  S
O1762      C1783   1.290       .  A
O1763     Zr1773   2.464       .  S
O1763      C1782   1.287       .  A
O1764     Zr2618   2.410   1_554  S
O1764      C1783   1.280       .  A
O1765      C1782   1.302       .  A
O1766     Zr1774   2.421   1_554  S
O1766      C1781   1.272       .  A
O1767     Zr1772   2.404   1_544  S
O1767     Zr1774   2.383   1_554  S
O1768     Zr2605   2.392       .  S
O1768     Zr2619   2.392       .  S
O1768      H1803   0.962       .  S
O1769     Zr1789   2.407       .  S
O1769      H1806   0.965       .  S
O1770     Zr1773   2.378       .  S
O1770     Zr1789   2.376       .  S
Zr1771     O2636   2.489   1_545  S
Zr1771     O1798   2.494       .  S
Zr1771     O1777   2.419       .  S
Zr1771     O2625   2.374   1_545  S
Zr1771     O2626   2.392   1_545  S
Zr1772     O2637   2.435       .  S
Zr1772     O1784   2.436   1_565  S
Zr1772     O2610   2.411   1_556  S
Zr1772     O1785   2.444   1_565  S
Zr1772     O1778   2.398   1_565  S
Zr1773     O1775   2.436       .  S
Zr1773     O2643   2.440       .  S
Zr1773     O2645   2.415   1_554  S
Zr1773     O2614   2.392       .  S
Zr1773     O2623   2.400   1_554  S
Zr1773     O1780   2.415   1_554  S
Zr1774     O1801   2.438       .  S
Zr1774     O1776   2.435       .  S
Zr1774     O1778   2.365       .  S
O1775      H1812   0.990       .  S
O1776      H1807   0.990       .  S
O1776      H1821   0.990       .  S
O1777     Zr2619   2.400   1_556  S
O1778      H1804   0.961       .  S
O1779     Zr2617   2.377       .  S
O1779     Zr1789   2.380   1_556  S
O1780     Zr2617   2.395       .  S
O1780     Zr1789   2.384   1_556  S
O1780      H1805   0.966       .  S
O1784      H1820   0.990       .  S
O1785      C1787   1.284       .  A
O1786      C1787   1.299       .  A
O1788     Zr1789   2.439       .  S
O1788      H1817   0.990       .  S
Zr1789     O1792   2.437       .  S
Zr1789     O1793   2.435       .  S
Zr1789     O1794   2.419   1_554  S
O1790     Zr2617   2.480       .  S
O1790      C1795   1.291       .  A
O1791     Zr2618   2.435       .  S
O1791      H1808   0.990       .  S
O1791      H1823   0.990       .  S
O1792      H1809   0.990   1_554  S
O1793      H1813   0.990   1_554  S
O1793      H1822   0.990       .  S
O1794      C1795   1.276       .  A
O1796      H1819   0.990       .  S
O1797     Zr2619   2.439       .  S
O1797      H1811   0.990       .  S
O1797      H1818   0.990       .  S
O1798      C1802   1.295       .  A
O1799     Zr2619   2.413   1_556  S
O1799      C1802   1.279       .  A
O1800      H1810   0.990       .  S
O1801      H1814   0.990       .  S
C1825      C1826   1.396       .  A
C1825      C1830   1.425       .  A
C1825      C1981   1.487       .  S
C1826      C1827   1.384       .  A
C1826      H1831   1.086       .  S
C1827      C1828   1.392       .  A
C1827      C2441   1.472       .  S
C1828      C1829   1.404       .  A
C1828      H1832   1.085       .  S
C1829      C1830   1.432       .  A
C1829      C1880   1.492       .  S
C1830      H1833   1.082       .  S
C1834      C1835   1.424       .  A
C1834      C1839   1.393       .  A
C1834      C1882   1.469       .  S
C1835      C2682   1.421   1_545  A
C1835      H1840   1.083       .  S
C1836      C2681   1.420       .  A
C1836      C1837   1.402       .  A
C1836      C1979   1.487       .  S
C1837      C2684   1.392       .  A
C1837      H1841   1.077       .  S
C1838      C2683   1.392   1_545  A
C1838      C1839   1.384       .  A
C1838      C2430   1.477       .  S
C1839      H1842   1.086       .  S
C1843      C1844   1.410       .  A
C1843      C1848   1.417       .  A
C1843      C1881   1.480       .  S
C1844      C1845   1.392       .  A
C1844      H1849   1.084       .  S
C1845      C2416   1.477       .  S
C1846      C1847   1.397       .  A
C1846      H1850   1.086       .  S
C1847      C1980   1.474       .  S
C1848      H1851   1.083       .  S
C1852      C2413   1.479       .  S
C1852      N1857   1.353       .  A
N1853      C1854   1.359       .  A
C1854      C2427   1.479       .  S
N1855      C1856   1.350       .  A
C1856      C2444   1.462       .  S
C1856      N2703   1.352       .  A
N1857      C2702   1.352   1_545  A
Zr1858     O1859   2.442       .  S
Zr1858     O1860   2.484       .  S
Zr1858     O1861   2.459       .  S
Zr1858     O1864   2.449       .  S
Zr1858     O1866   2.379       .  S
Zr1858     O1867   2.391       .  S
Zr1858     O1868   2.425       .  S
Zr1858     O1869   2.393       .  S
O1859      H1915   0.990       .  S
O1859      H1923   0.991       .  S
O1860      C1880   1.294       .  A
O1861      C1882   1.287       .  A
O1862     Zr1872   2.469       .  S
O1862      C1881   1.290       .  A
O1863     Zr1871   2.424       .  S
O1863      C1882   1.283       .  A
O1864      C1881   1.290       .  A
O1865     Zr1873   2.424       .  S
O1865      C1880   1.278       .  A
O1866     Zr1871   2.415       .  S
O1866     Zr1873   2.391       .  S
O1867     Zr1872   2.396       .  S
O1867     Zr1873   2.380       .  S
O1867      H1902   0.965       .  S
O1868     Zr1871   2.400       .  S
O1868     Zr1888   2.409       .  S
O1868      H1905   0.965       .  S
O1869     Zr1872   2.370       .  S
O1869     Zr1888   2.370       .  S
Zr1870     O1895   2.440       .  S
Zr1870     O1889   2.483       .  S
Zr1870     O1897   2.454       .  S
Zr1870     O1885   2.472       .  S
Zr1870     O1876   2.425       .  S
Zr1870     O1877   2.419       .  S
Zr1870     O1878   2.375       .  S
Zr1870     O1879   2.388       .  S
Zr1871     O1890   2.436       .  S
Zr1871     O1883   2.433       .  S
Zr1871     O1884   2.456       .  S
Zr1871     O1877   2.401       .  S
Zr1871     O1878   2.396       .  S
Zr1872     O1874   2.436       .  S
Zr1872     O1896   2.438       .  S
Zr1872     O1898   2.432       .  S
Zr1872     O1876   2.396       .  S
Zr1872     O1879   2.410       .  S
Zr1873     O1899   2.434       .  S
Zr1873     O1900   2.440       .  S
Zr1873     O1875   2.442       .  S
Zr1873     O1876   2.408       .  S
Zr1873     O1877   2.371       .  S
O1874      H1911   0.990       .  S
O1875      H1906   0.990       .  S
O1875      H1920   0.990       .  S
O1877      H1903   0.960       .  S
O1878     Zr1888   2.387       .  S
O1879     Zr1888   2.384       .  S
O1879      H1904   0.966       .  S
O1883      H1919   0.990       .  S
O1884      C1886   1.287       .  A
O1885      C1886   1.294       .  A
O1887     Zr1888   2.439       .  S
O1887      H1916   0.990       .  S
Zr1888     O1891   2.438       .  S
Zr1888     O1892   2.441       .  S
Zr1888     O1893   2.415       .  S
O1889      C1894   1.293       .  A
O1890      H1907   0.990       .  S
O1890      H1922   0.990       .  S
O1891      H1908   0.990       .  S
O1892      H1912   0.990       .  S
O1892      H1921   0.990       .  S
O1893      C1894   1.275       .  A
O1895      H1914   0.991       .  S
O1895      H1918   0.990       .  S
O1896      H1910   0.990       .  S
O1896      H1917   0.990       .  S
O1897      C1901   1.287       .  A
O1898      C1901   1.284       .  A
O1899      H1909   0.990       .  S
O1900      H1913   0.990       .  S
C1924      C1925   1.403       .  A
C1924      C1929   1.425       .  A
C1924      C2092   1.484       .  S
C1925      C1926   1.394       .  A
C1925      H1930   1.085       .  S
C1926      C1927   1.388       .  A
C1926      C2402   1.476       .  S
C1927      C1928   1.393       .  A
C1927      H1931   1.086       .  S
C1928      C1929   1.422       .  A
C1928      C1993   1.478       .  S
C1929      H1932   1.083       .  S
C1933      C1934   1.398       .  A
C1933      C1938   1.418       .  A
C1933      C2000   1.464       .  S
C1934      C1935   1.385       .  A
C1934      H1939   1.086       .  S
C1935      C1936   1.386       .  A
C1936      C1937   1.407       .  A
C1937      C1938   1.416       .  A
C1937      C2084   1.479       .  S
C1938      H1941   1.083       .  S
C1942      C1943   1.394       .  A
C1942      C1947   1.425       .  A
C1942      C2945   1.471       .  S
C1943      C1944   1.384       .  A
C1943      H2794   1.086       .  S
C1944      C1945   1.385       .  A
C1944      C3217   1.469       .  S
C1945      C1946   1.403       .  A
C1945      H1949   1.085       .  S
C1946      C1947   1.422       .  A
C1946      C1985   1.485       .  S
C1947      H1950   1.082       .  S
H1948      C2789   1.086   1_545  S
C1951      C2399   1.477       .  S
C1951      N1952   1.362       .  A
C1951      N1956   1.353       .  A
N1952      C1953   1.357       .  A
C1953      C2388   1.474       .  S
C1953      N1954   1.352       .  A
N1954      C1955   1.352       .  A
C1955      C2374   1.472       .  S
C1955      N1956   1.352       .  A
Zr1957     O1958   2.439       .  S
Zr1957     O1959   2.485       .  S
Zr1957     O1960   2.506       .  S
Zr1957     O1963   2.462       .  S
Zr1957     O1965   2.391       .  S
Zr1957     O1966   2.398       .  S
Zr1957     O1967   2.425       .  S
Zr1957     O1968   2.400       .  S
O1958      H2014   0.990       .  S
O1958      H2022   0.990       .  S
O1959      C1979   1.290       .  A
O1960      C1981   1.295       .  A
O1961     Zr1971   2.438       .  S
O1961      C1980   1.282       .  A
O1962     Zr1970   2.398       .  S
O1962      C1981   1.281       .  A
O1963      C1980   1.295       .  A
O1964     Zr1972   2.428       .  S
O1964      C1979   1.274       .  A
O1965     Zr1970   2.417       .  S
O1965     Zr1972   2.387       .  S
O1966     Zr1971   2.373       .  S
O1966     Zr1972   2.369       .  S
O1966      H2001   0.959       .  S
O1967     Zr1970   2.410       .  S
O1967     Zr1987   2.410       .  S
O1967      H2004   0.965       .  S
O1968     Zr1971   2.388       .  S
O1968     Zr1987   2.371       .  S
Zr1969     O1994   2.441       .  S
Zr1969     O1988   2.481       .  S
Zr1969     O1996   2.447       .  S
Zr1969     O1984   2.468       .  S
Zr1969     O1975   2.428       .  S
Zr1969     O1976   2.414       .  S
Zr1969     O1977   2.374       .  S
Zr1969     O1978   2.389       .  S
Zr1970     O1989   2.437       .  S
Zr1970     O1982   2.435       .  S
Zr1970     O1983   2.458       .  S
Zr1970     O1976   2.392       .  S
Zr1970     O1977   2.388       .  S
Zr1971     O1973   2.437       .  S
Zr1971     O1995   2.442       .  S
Zr1971     O1997   2.413       .  S
Zr1971     O1975   2.390       .  S
Zr1971     O1978   2.398       .  S
Zr1972     O1998   2.436       .  S
Zr1972     O1999   2.437       .  S
Zr1972     O1974   2.437       .  S
Zr1972     O1975   2.412       .  S
Zr1972     O1976   2.367       .  S
O1974      H2005   0.990       .  S
O1974      H2019   0.989       .  S
O1976      H2002   0.959       .  S
O1977     Zr1987   2.392       .  S
O1978     Zr1987   2.385       .  S
O1978      H2003   0.966       .  S
O1982      H2018   0.990       .  S
O1983      C1985   1.287       .  A
O1984      C1985   1.292       .  A
O1986     Zr1987   2.443       .  S
O1986      H2015   0.991       .  S
Zr1987     O1990   2.438       .  S
Zr1987     O1991   2.440       .  S
Zr1987     O1992   2.414       .  S
O1988      C1993   1.292       .  A
O1989      H2006   0.990       .  S
O1989      H2021   0.990       .  S
O1990      H2007   0.990       .  S
O1991      H2011   0.990       .  S
O1991      H2020   0.990       .  S
O1992      C1993   1.273       .  A
O1994      H2013   0.991       .  S
O1994      H2017   0.990       .  S
O1995      H2009   0.990       .  S
O1995      H2016   0.990       .  S
O1996      C2000   1.286       .  A
O1997      C2000   1.281       .  A
O1998      H2008   0.991       .  S
O1999      H2012   0.990       .  S
C2023      C2024   1.422       .  A
C2023      C2028   1.399       .  A
C2023      C2078   1.478       .  S
C2024      C2025   1.421       .  A
C2024      H2029   1.083       .  S
C2025      C2026   1.396       .  A
C2025      C2243   1.480       .  S
C2026      C2027   1.387       .  A
C2026      H2030   1.082       .  S
C2027      C2028   1.389       .  A
C2027      C2360   1.471       .  S
C2028      H2031   1.084       .  S
C2032      C2033   1.398       .  A
C2032      C2037   1.426       .  A
C2032      C2245   1.481       .  S
C2033      C2034   1.383       .  A
C2033      H2038   1.086       .  S
C2034      C2035   1.382       .  A
C2034      C2346   1.466   1_655  S
C2035      C2036   1.400       .  A
C2035      H2039   1.086       .  S
C2036      C2037   1.426       .  A
C2036      C2079   1.487       .  S
C2037      H2040   1.082       .  S
C2041      C2042   1.398       .  A
C2041      C2046   1.427       .  A
C2041      C2080   1.476       .  S
C2042      C2043   1.388       .  A
C2042      H2047   1.085   1_545  S
C2043      C2044   1.385       .  A
C2043      C2329   1.465   1_545  S
C2044      C2045   1.397       .  A
C2044      H2048   1.085       .  S
C2045      C2046   1.422       .  A
C2045      C2244   1.485       .  S
C2046      H2049   1.083       .  S
C2050      C2357   1.464       .  S
C2050      N2051   1.354       .  A
C2050      N2055   1.356       .  A
N2051      C2052   1.351       .  A
C2052      C2332   1.462       .  S
C2052      N2053   1.346       .  A
N2053      C2054   1.349       .  A
C2054      C2343   1.464       .  S
C2054      N2055   1.354       .  A
Zr2056     O2904   2.478   1_545  S
Zr2056     O2062   2.457       .  S
Zr2056     O2910   2.386   1_545  S
Zr2056     O2911   2.393   1_545  S
Zr2056     O2067   2.396       .  S
O2057      H2113   0.990       .  S
O2057      H2121   0.991       .  S
O2058     Zr2902   2.470       .  S
O2058      C2078   1.288       .  A
O2059      C2080   1.287       .  A
O2060     Zr2070   2.457       .  S
O2060      C2079   1.286       .  A
O2061     Zr2069   2.442       .  S
O2061      C2080   1.286       .  A
O2062      C2079   1.294       .  A
O2063     Zr2071   2.417       .  S
O2063      C2078   1.272       .  A
O2064     Zr2902   2.387       .  S
O2064     Zr2071   2.389       .  S
O2065     Zr2902   2.393       .  S
O2065     Zr2916   2.394       .  S
O2065     Zr2071   2.377       .  S
O2065      H2100   0.964       .  S
O2066     Zr2069   2.402       .  S
O2066     Zr2086   2.407       .  S
O2066      H2103   0.964       .  S
O2067     Zr2070   2.382       .  S
Zr2068     O2093   2.439       .  S
Zr2068     O2933   2.496       .  S
Zr2068     O2095   2.468       .  S
Zr2068     O2074   2.414       .  S
Zr2068     O2075   2.423       .  S
Zr2068     O2923   2.387       .  S
Zr2069     O2088   2.437       .  S
Zr2069     O2927   2.434   1_545  S
Zr2069     O2928   2.462   1_545  S
Zr2069     O2076   2.398       .  S
Zr2070     O2072   2.436       .  S
Zr2070     O2940   2.440   1_545  S
Zr2070     O2096   2.432   1_545  S
Zr2070     O2911   2.393   1_545  S
Zr2070     O2920   2.388   1_545  S
Zr2070     O2077   2.410       .  S
Zr2071     O2097   2.437       .  S
Zr2071     O2098   2.437       .  S
Zr2071     O2073   2.434       .  S
Zr2071     O2074   2.396       .  S
Zr2071     O2075   2.367       .  S
O2072      H2109   0.990       .  S
O2073      H2104   0.990       .  S
O2073      H2118   0.990       .  S
O2074     Zr2916   2.386       .  S
O2075      H2101   0.960       .  S
O2076     Zr2086   2.388       .  S
O2077     Zr2914   2.389       .  S
O2077      H2102   0.966       .  S
O2081     Zr2915   2.435       .  S
O2081      H2117   0.990       .  S
O2082     Zr2915   2.458       .  S
O2082      C2084   1.287       .  A
O2083      C2084   1.290       .  A
O2085     Zr2086   2.440       .  S
O2085      H2114   0.990       .  S
Zr2086     O2089   2.437       .  S
Zr2086     O2090   2.440       .  S
Zr2086     O2091   2.415       .  S
O2087     Zr2914   2.487   1_455  S
O2088      H2105   0.990       .  S
O2088      H2120   0.990       .  S
O2089      H2106   0.990       .  S
O2090      H2110   0.990       .  S
O2091      C2092   1.276       .  A
O2093      H2112   0.991       .  S
O2093      H2116   0.990       .  S
O2094     Zr2916   2.439       .  S
O2094      H2108   0.990       .  S
O2094      H2115   0.990       .  S
O2095      C2945   1.290       .  A
O2096      C2099   1.285       .  A
O2097      H2107   0.990       .  S
O2098      H2111   0.990       .  S
C2099      C2788   1.474       .  S
C2099      O2941   1.290       .  A
C2122      C2969   1.425       .  A
C2122      C2127   1.400       .  A
C2122      C2191   1.486       .  S
C2123      C2968   1.425   1_545  A
C2123      C2124   1.425       .  A
C2123      H2128   1.083       .  S
C2124      C2125   1.395       .  A
C2124      C2257   1.483       .  S
C2125      C2126   1.388       .  A
C2125      H2129   1.086       .  S
C2126      C2973   1.393   1_545  A
C2126      C2318   1.470       .  S
C2127      C2972   1.393       .  A
C2127      H2130   1.085       .  S
C2131      C2132   1.399       .  A
C2131      C2136   1.425       .  A
C2131      C2264   1.477       .  S
C2132      C2133   1.387       .  A
C2132      H2137   1.086       .  S
C2133      C2134   1.381       .  A
C2133      C2304   1.471       .  S
C2134      C2135   1.404       .  A
C2134      H2138   1.085       .  S
C2135      C2136   1.422       .  A
C2135      C2183   1.484       .  S
C2136      H2139   1.082       .  S
C2140      C2141   1.397       .  A
C2140      C2198   1.468       .  S
C2141      H2146   1.086       .  S
C2142      C2143   1.389       .  A
C2142      C2287   1.470       .  S
C2143      C2144   1.406       .  A
C2143      H2147   1.085       .  S
C2144      C2145   1.421       .  A
C2144      C2249   1.488       .  S
C2145      H2148   1.083       .  S
C2149      C2315   1.467       .  S
C2149      N2150   1.358       .  A
C2149      N3000   1.353   1_545  A
C2151      C2301   1.472       .  S
C2151      N2152   1.355       .  A
C2153      C2290   1.467       .  S
C2153      N2154   1.351       .  A
N2154      C2995   1.356       .  A
Zr2155     O2156   2.441       .  S
Zr2155     O2157   2.485       .  S
Zr2155     O2158   2.505       .  S
Zr2155     O2161   2.466       .  S
Zr2155     O2163   2.389       .  S
Zr2155     O2164   2.398       .  S
Zr2155     O2165   2.424       .  S
Zr2155     O2166   2.394       .  S
O2156      H2212   0.990       .  S
O2156      H2220   0.990       .  S
O2157      C2177   1.293       .  A
O2158      C2179   1.296       .  A
O2159     Zr2169   2.440       .  S
O2159      C2178   1.283       .  A
O2160     Zr2168   2.442       .  S
O2160      C2179   1.289       .  A
O2161      C2178   1.295       .  A
O2162     Zr2170   2.420       .  S
O2162      C2177   1.276       .  A
O2163     Zr2168   2.418       .  S
O2163     Zr2170   2.392       .  S
O2164     Zr2169   2.395       .  S
O2164     Zr2170   2.374       .  S
O2164      H2199   0.965       .  S
O2165     Zr2168   2.403       .  S
O2165     Zr2185   2.404       .  S
O2165      H2202   0.964       .  S
O2166     Zr2169   2.382       .  S
O2166     Zr2185   2.369       .  S
Zr2167     O2192   2.444       .  S
Zr2167     O2186   2.487       .  S
Zr2167     O2194   2.465       .  S
Zr2167     O2182   2.445       .  S
Zr2167     O2173   2.421       .  S
Zr2167     O2174   2.423       .  S
Zr2167     O2175   2.374       .  S
Zr2167     O2176   2.384       .  S
Zr2168     O2187   2.436       .  S
Zr2168     O2180   2.434       .  S
Zr2168     O2181   2.472       .  S
Zr2168     O2174   2.403       .  S
Zr2168     O2175   2.393       .  S
Zr2169     O2171   2.438       .  S
Zr2169     O2193   2.439       .  S
Zr2169     O2195   2.419       .  S
Zr2169     O2173   2.393       .  S
Zr2169     O2176   2.408       .  S
Zr2170     O2196   2.437       .  S
Zr2170     O2197   2.438       .  S
Zr2170     O2172   2.438       .  S
Zr2170     O2173   2.406       .  S
Zr2170     O2174   2.370       .  S
O2171      H2208   0.990       .  S
O2172      H2203   0.990       .  S
O2172      H2217   0.990       .  S
O2174      H2200   0.961       .  S
O2175     Zr2185   2.384       .  S
O2176     Zr2185   2.386       .  S
O2176      H2201   0.966       .  S
O2180      H2216   0.990       .  S
O2181      C2183   1.290       .  A
O2182      C2183   1.291       .  A
O2184     Zr2185   2.432       .  S
O2184      H2213   0.990       .  S
Zr2185     O2188   2.437       .  S
Zr2185     O2189   2.440       .  S
Zr2185     O2190   2.414       .  S
O2186      C2191   1.291       .  A
O2187      H2204   0.990       .  S
O2187      H2219   0.990       .  S
O2188      H2205   0.990       .  S
O2189      H2209   0.990       .  S
O2189      H2218   0.990       .  S
O2190      C2191   1.272       .  A
O2192      H2211   0.991       .  S
O2192      H2215   0.990       .  S
O2193      H2207   0.990       .  S
O2193      H2214   0.990       .  S
O2194      C2198   1.288       .  A
O2195      C2198   1.281       .  A
O2196      H2206   0.990       .  S
O2197      H2210   0.990       .  S
Zr2221     O2222   2.439       .  S
Zr2221     O2223   2.473       .  S
Zr2221     O2224   2.466       .  S
Zr2221     O2227   2.477       .  S
Zr2221     O2229   2.393       .  S
Zr2221     O2230   2.397       .  S
Zr2221     O2231   2.426       .  S
Zr2221     O2232   2.391       .  S
O2222      H2278   0.990       .  S
O2222      H2286   0.991       .  S
O2223      C2243   1.289       .  A
O2224      C2245   1.288       .  A
O2225     Zr2235   2.452       .  S
O2225      C2244   1.285       .  A
O2226     Zr2234   2.426       .  S
O2226      C2245   1.286       .  A
O2227      C2244   1.296       .  A
O2228     Zr2236   2.421       .  S
O2228      C2243   1.273       .  A
O2229     Zr2234   2.409       .  S
O2229     Zr2236   2.387       .  S
O2230     Zr2235   2.385       .  S
O2230     Zr2236   2.377       .  S
O2230      H2265   0.962       .  S
O2231     Zr2234   2.402       .  S
O2231     Zr2251   2.409       .  S
O2231      H2268   0.965       .  S
O2232     Zr2235   2.383       .  S
O2232     Zr2251   2.368       .  S
Zr2233     O2258   2.440       .  S
Zr2233     O2252   2.486       .  S
Zr2233     O2260   2.465       .  S
Zr2233     O2248   2.470       .  S
Zr2233     O2239   2.421       .  S
Zr2233     O2240   2.422       .  S
Zr2233     O2241   2.381       .  S
Zr2233     O2242   2.394       .  S
Zr2234     O2253   2.437       .  S
Zr2234     O2246   2.436       .  S
Zr2234     O2247   2.463       .  S
Zr2234     O2240   2.407       .  S
Zr2234     O2241   2.389       .  S
Zr2235     O2237   2.435       .  S
Zr2235     O2259   2.439       .  S
Zr2235     O2261   2.419       .  S
Zr2235     O2239   2.391       .  S
Zr2235     O2242   2.404       .  S
Zr2236     O2262   2.430       .  S
Zr2236     O2263   2.437       .  S
Zr2236     O2238   2.435       .  S
Zr2236     O2239   2.402       .  S
Zr2236     O2240   2.366       .  S
O2237      H2274   0.990       .  S
O2238      H2269   0.990       .  S
O2238      H2283   0.990       .  S
O2240      H2266   0.961       .  S
O2241     Zr2251   2.390       .  S
O2242     Zr2251   2.388       .  S
O2242      H2267   0.966       .  S
O2246      H2282   0.990       .  S
O2247      C2249   1.288       .  A
O2248      C2249   1.294       .  A
O2250     Zr2251   2.440       .  S
O2250      H2279   0.990       .  S
Zr2251     O2254   2.438       .  S
Zr2251     O2255   2.437       .  S
Zr2251     O2256   2.411       .  S
O2252      C2257   1.293       .  A
O2253      H2270   0.990       .  S
O2253      H2285   0.990       .  S
O2254      H2271   0.990       .  S
O2255      H2275   0.989       .  S
O2255      H2284   0.990       .  S
O2256      C2257   1.270       .  A
O2258      H2277   0.991       .  S
O2258      H2281   0.990       .  S
O2259      H2273   0.990       .  S
O2259      H2280   0.990       .  S
O2260      C2264   1.288       .  A
O2261      C2264   1.283       .  A
O2262      H2272   0.989       .  S
O2263      H2276   0.990       .  S
C2287      C2292   1.408       .  A
C2288      C2289   1.407       .  A
C2288      C2293   1.452       .  S
C2289      C2296   1.451       .  S
C2290      C2291   1.412       .  A
C2291      C2292   1.406       .  A
C2291      C2294   1.451       .  S
C2292      C2295   1.451       .  S
C2293      N2300   1.157       .  T
C2294      N2299   1.157       .  T
C2295      N2297   1.157       .  T
C2296      N2298   1.157       .  T
C2301      C2302   1.414       .  A
C2301      C2306   1.414       .  A
C2302      C2303   1.408       .  A
C2302      C2307   1.452       .  S
C2303      C2304   1.410       .  A
C2303      C2310   1.451       .  S
C2304      C2305   1.408       .  A
C2305      C2306   1.401       .  A
C2305      C2308   1.453       .  S
C2306      C2309   1.453       .  S
C2307      N2314   1.158       .  T
C2308      N2313   1.157       .  T
C2309      N2311   1.157       .  T
C2310      N2312   1.157       .  T
C2315      C2316   1.411       .  A
C2315      C3166   1.412   1_545  A
C2316      C2317   1.405       .  A
C2316      C2321   1.451       .  S
C2317      C2318   1.410       .  A
C2317      C2324   1.452       .  S
C2318      C3165   1.409   1_545  A
C2319      C3164   1.411       .  A
C2319      C2320   1.405       .  A
C2319      C2322   1.452       .  S
C2320      C3161   1.413       .  A
C2320      C2323   1.453       .  S
C2321      N2328   1.157       .  T
C2322      N2327   1.157       .  T
C2323      N2325   1.157       .  T
C2324      N2326   1.157       .  T
C2329      C3176   1.408       .  A
C2329      C2334   1.406       .  A
C2330      C3175   1.409       .  A
C2330      C2331   1.402       .  A
C2330      C2335   1.451       .  S
C2331      C2332   1.409       .  A
C2331      C2338   1.452       .  S
C2332      C2333   1.414       .  A
C2333      C3180   1.402       .  A
C2333      C2336   1.453       .  S
C2334      C3179   1.401       .  A
C2334      C2337   1.453       .  S
C2335      N2342   1.157       .  T
C2336      N2341   1.157       .  T
C2337      N2339   1.157       .  T
C2338      N2340   1.157       .  T
C2343      C2344   1.410       .  A
C2343      C2348   1.415       .  A
C2344      C2349   1.451       .  S
C2345      C2346   1.410       .  A
C2345      C2352   1.452       .  S
C2347      C2348   1.397       .  A
C2348      C2351   1.455       .  S
C2349      N2356   1.158       .  T
C2350      N2355   1.157       .  T
C2351      N2353   1.158       .  T
C2352      N2354   1.157       .  T
C2357      C2358   1.412       .  A
C2357      C2362   1.409       .  A
C2358      C2359   1.404       .  A
C2358      C2363   1.453       .  S
C2359      C2360   1.410       .  A
C2359      C2366   1.452       .  S
C2360      C2361   1.413       .  A
C2361      C2362   1.402       .  A
C2361      C2364   1.452       .  S
C2362      C2365   1.453       .  S
C2363      N2370   1.158       .  T
C2364      N2369   1.157       .  T
C2365      N2367   1.157       .  T
C2366      N2368   1.157       .  T
C2371      C2372   1.410       .  A
C2371      C2376   1.408       .  A
C2371      C2790   1.470   1_545  S
C2372      C2373   1.404       .  A
C2372      C2377   1.452       .  S
C2373      C2374   1.414       .  A
C2373      C2380   1.453       .  S
C2374      C2375   1.416       .  A
C2375      C2376   1.402       .  A
C2375      C2378   1.452       .  S
C2376      C2379   1.453       .  S
C2377      N2384   1.157       .  T
C2378      N2383   1.157       .  T
C2379      N2381   1.157   1_545  T
C2380      N2382   1.158       .  T
C2385      C2386   1.412       .  A
C2385      C2390   1.409       .  A
C2386      C2387   1.411       .  A
C2386      C2391   1.450       .  S
C2387      C2388   1.410       .  A
C2387      C2394   1.450       .  S
C2388      C2389   1.412       .  A
C2389      C2390   1.404       .  A
C2389      C2392   1.452       .  S
C2390      C2393   1.451       .  S
C2391      N2398   1.157       .  T
C2392      N2397   1.157       .  T
C2394      N2396   1.157       .  T
C2399      C2400   1.413       .  A
C2399      C2404   1.416       .  A
C2400      C2401   1.403       .  A
C2400      C2405   1.452       .  S
C2401      C2402   1.411       .  A
C2401      C2408   1.453       .  S
C2402      C2403   1.410       .  A
C2403      C2404   1.409       .  A
C2403      C2406   1.452       .  S
C2404      C2407   1.452       .  S
C2405      N2412   1.157       .  T
C2406      N2411   1.157       .  T
C2407      N2409   1.157       .  T
C2408      N2410   1.157       .  T
C2413      C2418   1.414       .  A
C2414      C2415   1.407       .  A
C2414      C2419   1.451       .  S
C2415      C2422   1.452       .  S
C2416      C2417   1.410       .  A
C2417      C2418   1.408       .  A
C2417      C2420   1.452       .  S
C2418      C2421   1.452       .  S
C2419      N2426   1.157       .  T
C2420      N2425   1.157       .  T
C2421      N2423   1.157       .  T
C2422      N2424   1.157       .  T
C2427      C2428   1.413       .  A
C2427      C3278   1.419   1_545  A
C2428      C2429   1.409       .  A
C2428      C2433   1.451       .  S
C2429      C2430   1.413       .  A
C2429      C2436   1.451       .  S
C2430      C3277   1.407   1_545  A
C2431      C3276   1.408       .  A
C2431      C2432   1.403       .  A
C2431      C2434   1.454       .  S
C2432      C3273   1.419       .  A
C2432      C2435   1.453       .  S
C2433      N2440   1.157       .  T
C2434      N2439   1.157       .  T
C2436      N2438   1.157       .  T
C2441      C2442   1.414       .  A
C2441      C2446   1.410       .  A
C2442      C2443   1.408       .  A
C2442      C2447   1.450       .  S
C2443      C2444   1.406       .  A
C2443      C2450   1.449       .  S
C2444      C2445   1.411       .  A
C2445      C2446   1.399       .  A
C2445      C2448   1.454       .  S
C2446      C2449   1.452       .  S
C2447      N2454   1.157       .  T
C2448      N2453   1.157       .  T
C2449      N2451   1.157       .  T
C2450      N2452   1.157       .  T
C2455      C2456   1.408       .  A
C2455      C2460   1.410       .  A
C2456      C2461   1.450       .  S
C2457      C2458   1.412       .  A
C2457      C2464   1.450   1_455  S
C2459      C2460   1.404       .  A
C2459      C2462   1.452       .  S
C2460      C2463   1.452       .  S
C2461      N2468   1.157       .  T
C2462      N2467   1.157       .  T
C2463      N2465   1.157       .  T
C2464      N2466   1.157       .  T
C2469      C2470   1.413       .  A
C2469      C2474   1.411       .  A
C2470      C2471   1.407       .  A
C2470      C2475   1.451       .  S
C2471      C2472   1.410       .  A
C2471      C2478   1.451       .  S
C2472      C2473   1.412       .  A
C2473      C2474   1.407       .  A
C2473      C2476   1.452       .  S
C2474      C2477   1.451       .  S
C2475      N2482   1.157       .  T
C2476      N2481   1.157       .  T
C2477      N2479   1.157       .  T
C2478      N2480   1.157       .  T
C2483      C2484   1.409       .  A
C2483      C2488   1.408       .  A
C2483      C2574   1.468       .  S
C2484      C2485   1.408       .  A
C2484      C2489   1.451       .  S
C2485      C2486   1.412       .  A
C2485      C2492   1.451       .  S
C2486      C2487   1.412       .  A
C2487      C2488   1.400       .  A
C2487      C2490   1.452       .  S
C2488      C2491   1.453       .  S
C2489      N3342   1.157       .  T
C2490      N2495   1.157       .  T
C2491      N2493   1.157       .  T
C2492      N2494   1.157       .  T
N2496      C3335   1.157   1_545  T
C2497      C2498   1.417       .  A
C2497      C2502   1.416       .  A
C2497      C2561   1.493       .  S
C2498      C2499   1.399       .  A
C2498      C3349   1.452   1_545  S
C2499      C2500   1.405       .  A
C2499      C2506   1.449       .  S
C2500      C2501   1.427       .  A
C2501      C2502   1.411       .  A
C2501      C2504   1.453       .  S
C2502      C2505   1.455       .  S
C2503      C3344   1.452       .  S
C2503      N2510   1.157       .  T
C2504      N2509   1.158       .  T
C2505      N2507   1.158       .  T
C2506      N2508   1.157       .  T
C2511      C2512   1.410       .  A
C2511      C2516   1.407       .  A
C2512      C2513   1.394       .  A
C2512      C2517   1.455       .  S
C2513      C2514   1.406       .  A
C2513      C2520   1.453       .  S
C2514      C2515   1.408       .  A
C2515      C2516   1.405       .  A
C2515      C2518   1.450       .  S
C2516      C2519   1.450       .  S
C2517      N2524   1.157       .  T
C2518      N2523   1.157       .  T
C2519      N2521   1.157       .  T
C2520      N2522   1.157       .  T
C2525      C2526   1.422       .  A
C2525      C2530   1.413       .  A
C2526      C2527   1.402       .  A
C2526      C2531   1.454       .  S
C2527      C2528   1.406       .  A
C2527      C2534   1.447       .  S
C2528      C2529   1.420       .  A
C2529      C2530   1.410       .  A
C2529      C2532   1.452       .  S
C2530      C2533   1.451   1_655  S
C2531      N2538   1.158       .  T
C2532      N2537   1.158       .  T
C2534      N2536   1.157       .  T
C2539      C2540   1.429       .  A
C2539      C2544   1.405       .  A
C2539      C3023   1.487       .  S
C2540      C2541   1.424       .  A
C2540      H2545   1.082       .  S
C2541      C2627   1.483       .  S
C2542      C2543   1.386       .  A
C2542      H2546   1.079   1_455  S
C2543      C3371   1.484   1_455  S
C2544      H2547   1.084       .  S
C2548      C2549   1.396       .  A
C2548      C2553   1.439       .  A
C2548      C3025   1.496       .  S
C2549      C2550   1.382       .  A
C2549      H2554   1.086       .  S
C2550      C2551   1.382       .  A
C2550      C3360   1.460       .  S
C2551      C2552   1.400       .  A
C2551      H2555   1.085       .  S
C2552      C2553   1.439       .  A
C2552      C2628   1.504       .  S
C2553      H2556   1.082       .  S
C2557      C2558   1.419       .  A
C2557      C2562   1.402   1_565  A
C2557      C2629   1.472       .  S
C2558      C2559   1.414       .  A
C2558      H2563   1.083       .  S
C2559      C2560   1.395       .  A
C2559      C3024   1.478       .  S
C2560      C2561   1.392   1_565  A
C2560      H2564   1.083       .  S
C2561      C2562   1.398       .  A
C2562      H2565   1.084       .  S
C2566      C3374   1.487       .  S
C2566      N2567   1.365       .  A
C2566      N2571   1.353       .  A
N2567      C2568   1.365       .  A
C2568      C3346   1.487       .  S
C2568      N2569   1.348       .  A
N2569      C2570   1.346       .  A
C2570      C3357   1.450       .  S
C2570      N2571   1.346       .  A
C2572      C2573   1.395       .  A
C2572      C2577   1.425       .  A
C2572      C2648   1.484       .  S
C2573      C2574   1.388       .  A
C2574      C2575   1.391       .  A
C2575      C2576   1.401       .  A
C2575      H2579   1.085       .  S
C2576      C2577   1.430       .  A
C2576      C2740   1.490       .  S
C2577      H2580   1.082       .  S
C2581      C2582   1.424       .  A
C2581      C2586   1.406       .  A
C2581      C2732   1.486       .  S
C2582      C2583   1.424       .  A
C2582      H2587   1.083       .  S
C2583      C2584   1.401       .  A
C2583      C2633   1.484       .  S
C2584      C2585   1.386       .  A
C2584      H2588   1.085       .  S
C2585      C2586   1.389       .  A
C2585      C3318   1.476       .  S
C2586      H2589   1.085       .  S
C2590      C3315   1.472       .  S
C2590      N2591   1.354       .  A
C2590      N2595   1.359       .  A
N2591      C2592   1.353       .  A
C2592      C3332   1.467       .  S
C2592      N2593   1.350       .  A
N2593      C2594   1.353       .  A
C2594      C3301   1.467       .  S
C2594      N2595   1.358       .  A
C2596      C2597   1.397       .  A
C2596      C2601   1.423       .  A
C2596      C2747   1.478       .  S
C2597      C2598   1.388       .  A
C2597      H2602   1.086       .  S
C2598      C2599   1.393       .  A
C2598      C3304   1.473   1_655  S
C2599      C2600   1.403       .  A
C2599      H2603   1.085       .  S
C2600      C2601   1.423       .  A
C2600      C2641   1.484       .  S
C2601      H2604   1.083       .  S
Zr2605     O2606   2.439   1_545  S
Zr2605     O2611   2.492   1_545  S
Zr2605     O2615   2.424   1_545  S
Zr2605     O2616   2.388   1_545  S
O2606      H2662   0.990   1_665  S
O2606      H2670   0.991       .  S
O2608      C2629   1.291       .  A
O2609     Zr2619   2.465   1_565  S
O2609      C2628   1.288       .  A
O2610      C2629   1.280       .  A
O2611      C2628   1.301       .  A
O2612     Zr2620   2.424   1_554  S
O2612      C2627   1.273       .  A
O2613     Zr2618   2.404   1_554  S
O2613     Zr2620   2.384   1_554  S
O2614      H2649   0.962       .  S
O2615     Zr2635   2.406       .  S
O2615      H2652   0.965       .  S
O2616     Zr2619   2.375   1_565  S
O2616     Zr2635   2.371       .  S
Zr2617     O2644   2.498       .  S
Zr2617     O2623   2.418       .  S
Zr2618     O2630   2.437       .  S
Zr2618     O2631   2.438       .  S
Zr2618     O2624   2.397       .  S
Zr2619     O2621   2.436   1_545  S
Zr2619     O2626   2.416   1_544  S
Zr2620     O2647   2.438       .  S
Zr2620     O2622   2.437       .  S
Zr2620     O2624   2.372       .  S
O2621      H2658   0.990       .  S
O2622      H2653   0.991       .  S
O2622      H2667   0.990       .  S
O2624      H2650   0.962       .  S
O2625     Zr2635   2.377   1_556  S
O2626     Zr2635   2.386   1_556  S
O2626      H2651   0.966       .  S
O2630      H2666   0.990   1_556  S
O2631      C2633   1.282       .  A
O2632      C2633   1.297       .  A
O2634     Zr2635   2.437       .  S
O2634      H2663   0.990       .  S
Zr2635     O2638   2.439       .  S
Zr2635     O2639   2.435       .  S
Zr2635     O2640   2.414   1_554  S
O2636      C2641   1.293       .  A
O2637      H2654   0.990       .  S
O2637      H2669   0.990       .  S
O2638      H2655   0.990   1_554  S
O2639      H2659   0.990   1_554  S
O2639      H2668   0.990       .  S
O2640      C2641   1.276       .  A
O2642      H2665   0.990       .  S
O2643      H2657   0.990       .  S
O2643      H2664   0.990       .  S
O2644      C2648   1.296       .  A
O2645      C2648   1.280       .  A
O2646      H2656   0.990       .  S
O2647      H2660   0.990       .  S
C2671      C2672   1.394       .  A
C2671      C2676   1.426       .  A
C2671      C2827   1.485       .  S
C2672      C2673   1.384       .  A
C2672      H2677   1.086       .  S
C2673      C2674   1.392       .  A
C2673      C3287   1.470       .  S
C2674      C2675   1.403       .  A
C2674      H2678   1.085       .  S
C2675      C2676   1.432       .  A
C2675      C2726   1.490       .  S
C2676      H2679   1.082       .  S
C2680      C2681   1.423       .  A
C2680      C2685   1.396       .  A
C2680      C2728   1.471       .  S
C2681      H2686   1.083       .  S
C2682      C2683   1.404       .  A
C2682      C2825   1.492       .  S
C2683      H2687   1.076       .  S
C2684      C2685   1.388       .  A
C2684      C3276   1.479       .  S
C2685      H2688   1.086       .  S
C2689      C2690   1.409       .  A
C2689      C2694   1.421       .  A
C2689      C2727   1.486       .  S
C2690      C2691   1.392       .  A
C2690      H2695   1.084       .  S
C2691      C3262   1.475       .  S
C2692      C2693   1.398       .  A
C2692      H2696   1.085       .  S
C2693      C2826   1.480       .  S
C2694      H2697   1.083       .  S
C2698      C3259   1.477       .  S
C2698      N2703   1.353       .  A
N2699      C2700   1.358       .  A
C2700      C3273   1.481       .  S
N2701      C2702   1.349       .  A
C2702      C3290   1.460       .  S
Zr2704     O2705   2.441       .  S
Zr2704     O2706   2.486       .  S
Zr2704     O2707   2.469       .  S
Zr2704     O2710   2.455       .  S
Zr2704     O2712   2.379       .  S
Zr2704     O2713   2.393       .  S
Zr2704     O2714   2.425       .  S
Zr2704     O2715   2.393       .  S
O2705      H2761   0.990       .  S
O2705      H2769   0.991       .  S
O2706      C2726   1.295       .  A
O2707      C2728   1.289       .  A
O2708     Zr2718   2.469       .  S
O2708      C2727   1.290       .  A
O2709     Zr2717   2.421       .  S
O2709      C2728   1.282       .  A
O2710      C2727   1.291       .  A
O2711     Zr2719   2.423       .  S
O2711      C2726   1.278       .  A
O2712     Zr2717   2.414       .  S
O2712     Zr2719   2.392       .  S
O2713     Zr2718   2.397       .  S
O2713     Zr2719   2.382       .  S
O2713      H2748   0.966       .  S
O2714     Zr2717   2.404       .  S
O2714     Zr2734   2.412       .  S
O2714      H2751   0.965       .  S
O2715     Zr2718   2.372       .  S
O2715     Zr2734   2.371       .  S
Zr2716     O2741   2.439       .  S
Zr2716     O2735   2.485       .  S
Zr2716     O2743   2.458       .  S
Zr2716     O2731   2.478       .  S
Zr2716     O2722   2.424       .  S
Zr2716     O2723   2.418       .  S
Zr2716     O2724   2.374       .  S
Zr2716     O2725   2.390       .  S
Zr2717     O2736   2.437       .  S
Zr2717     O2729   2.434       .  S
Zr2717     O2730   2.451       .  S
Zr2717     O2723   2.399       .  S
Zr2717     O2724   2.396       .  S
Zr2718     O2720   2.435       .  S
Zr2718     O2742   2.439       .  S
Zr2718     O2744   2.433       .  S
Zr2718     O2722   2.397       .  S
Zr2718     O2725   2.410       .  S
Zr2719     O2745   2.434       .  S
Zr2719     O2746   2.441       .  S
Zr2719     O2721   2.443       .  S
Zr2719     O2722   2.407       .  S
Zr2719     O2723   2.369       .  S
O2720      H2757   0.990       .  S
O2721      H2752   0.990       .  S
O2721      H2766   0.990       .  S
O2723      H2749   0.960       .  S
O2724     Zr2734   2.387       .  S
O2725     Zr2734   2.384       .  S
O2725      H2750   0.966       .  S
O2729      H2765   0.990       .  S
O2730      C2732   1.285       .  A
O2731      C2732   1.295       .  A
O2733     Zr2734   2.439       .  S
O2733      H2762   0.991       .  S
Zr2734     O2737   2.436       .  S
Zr2734     O2738   2.441       .  S
Zr2734     O2739   2.418       .  S
O2735      C2740   1.294       .  A
O2736      H2753   0.990       .  S
O2736      H2768   0.990       .  S
O2737      H2754   0.990       .  S
O2738      H2758   0.990       .  S
O2738      H2767   0.990       .  S
O2739      C2740   1.276       .  A
O2741      H2760   0.991       .  S
O2741      H2764   0.990       .  S
O2742      H2756   0.990       .  S
O2742      H2763   0.990       .  S
O2743      C2747   1.288       .  A
O2744      C2747   1.284       .  A
O2745      H2755   0.990       .  S
O2746      H2759   0.990       .  S
C2770      C2771   1.404       .  A
C2770      C2775   1.428       .  A
C2770      C2938   1.489       .  S
C2771      C2772   1.395       .  A
C2771      H2776   1.085       .  S
C2772      C2773   1.389       .  A
C2772      C3248   1.477       .  S
C2773      C2774   1.393       .  A
C2773      H2777   1.086       .  S
C2774      C2775   1.425       .  A
C2774      C2839   1.484       .  S
C2775      H2778   1.082       .  S
C2779      C2780   1.399       .  A
C2779      C2784   1.417       .  A
C2779      C2846   1.465       .  S
C2780      C2781   1.387       .  A
C2780      H2785   1.086       .  S
C2781      C2782   1.388       .  A
C2782      C2783   1.408       .  A
C2783      C2784   1.415       .  A
C2783      C2930   1.479       .  S
C2784      H2787   1.083       .  S
C2788      C2789   1.395       .  A
C2788      C2793   1.428       .  A
C2789      C2790   1.385       .  A
C2790      C2791   1.385       .  A
C2791      C2792   1.401       .  A
C2791      H2795   1.084       .  S
C2792      C2793   1.425       .  A
C2792      C2831   1.490       .  S
C2793      H2796   1.082       .  S
C2797      C3245   1.476       .  S
C2797      N2798   1.362       .  A
C2797      N2802   1.353       .  A
N2798      C2799   1.358       .  A
C2799      C3234   1.476       .  S
C2799      N2800   1.353       .  A
N2800      C2801   1.353       .  A
C2801      C3220   1.471       .  S
C2801      N2802   1.350       .  A
Zr2803     O2804   2.439       .  S
Zr2803     O2805   2.498       .  S
Zr2803     O2806   2.500       .  S
Zr2803     O2809   2.470       .  S
Zr2803     O2811   2.392       .  S
Zr2803     O2812   2.391       .  S
Zr2803     O2813   2.427       .  S
Zr2803     O2814   2.398       .  S
O2804      H2860   0.990       .  S
O2804      H2868   0.990       .  S
O2805      C2825   1.293       .  A
O2806      C2827   1.294       .  A
O2807     Zr2817   2.445       .  S
O2807      C2826   1.284       .  A
O2808     Zr2816   2.407       .  S
O2808      C2827   1.282       .  A
O2809      C2826   1.296       .  A
O2810     Zr2818   2.427       .  S
O2810      C2825   1.276       .  A
O2811     Zr2816   2.420       .  S
O2811     Zr2818   2.392       .  S
O2812     Zr2817   2.369       .  S
O2812     Zr2818   2.369       .  S
O2812      H2847   0.958       .  S
O2813     Zr2816   2.406       .  S
O2813     Zr2833   2.411       .  S
O2813      H2850   0.965       .  S
O2814     Zr2817   2.384       .  S
O2814     Zr2833   2.373       .  S
Zr2815     O2840   2.440       .  S
Zr2815     O2834   2.489       .  S
Zr2815     O2842   2.456       .  S
Zr2815     O2830   2.479       .  S
Zr2815     O2821   2.428       .  S
Zr2815     O2822   2.417       .  S
Zr2815     O2823   2.377       .  S
Zr2815     O2824   2.391       .  S
Zr2816     O2835   2.439       .  S
Zr2816     O2828   2.435       .  S
Zr2816     O2829   2.463       .  S
Zr2816     O2822   2.392       .  S
Zr2816     O2823   2.392       .  S
Zr2817     O2819   2.436       .  S
Zr2817     O2841   2.443       .  S
Zr2817     O2843   2.408       .  S
Zr2817     O2821   2.391       .  S
Zr2817     O2824   2.401       .  S
Zr2818     O2844   2.435       .  S
Zr2818     O2845   2.438       .  S
Zr2818     O2820   2.439       .  S
Zr2818     O2821   2.408       .  S
Zr2818     O2822   2.364       .  S
O2820      H2851   0.990   1_565  S
O2820      H2865   0.990       .  S
O2822      H2848   0.957       .  S
O2823     Zr2833   2.391       .  S
O2824     Zr2833   2.381       .  S
O2824      H2849   0.966       .  S
O2828      H2864   0.990       .  S
O2829      C2831   1.288       .  A
O2830      C2831   1.296       .  A
O2832     Zr2833   2.440       .  S
O2832      H2861   0.991       .  S
Zr2833     O2836   2.438       .  S
Zr2833     O2837   2.438       .  S
Zr2833     O2838   2.421       .  S
O2834      C2839   1.294       .  A
O2835      H2852   0.990       .  S
O2835      H2867   0.990       .  S
O2836      H2853   0.990       .  S
O2837      H2857   0.990       .  S
O2837      H2866   0.990       .  S
O2838      C2839   1.273       .  A
O2840      H2859   0.991       .  S
O2840      H2863   0.990       .  S
O2841      H2855   0.990       .  S
O2841      H2862   0.990       .  S
O2842      C2846   1.287       .  A
O2843      C2846   1.280       .  A
O2844      H2854   0.990   1_565  S
O2845      H2858   0.990       .  S
C2869      C2870   1.422       .  A
C2869      C2874   1.401       .  A
C2869      C2924   1.482       .  S
C2870      C2871   1.421       .  A
C2870      H2875   1.083       .  S
C2871      C2872   1.395       .  A
C2871      C3089   1.482       .  S
C2872      C2873   1.389       .  A
C2872      H2876   1.082       .  S
C2873      C2874   1.392       .  A
C2873      C3206   1.475       .  S
C2874      H2877   1.084       .  S
C2878      C2879   1.398       .  A
C2878      C2883   1.426       .  A
C2878      C3091   1.481       .  S
C2879      C2880   1.385       .  A
C2879      H2884   1.086       .  S
C2880      C2881   1.381       .  A
C2880      C3192   1.468   1_655  S
C2881      C2882   1.402       .  A
C2881      H2885   1.085       .  S
C2882      C2883   1.426       .  A
C2882      C2925   1.487       .  S
C2883      H2886   1.082       .  S
C2887      C2888   1.397       .  A
C2887      C2892   1.424       .  A
C2887      C2926   1.471       .  S
C2888      C2889   1.386       .  A
C2888      H2893   1.085       .  S
C2889      C2890   1.383       .  A
C2889      C3175   1.463       .  S
C2890      C2891   1.398       .  A
C2890      H2894   1.086       .  S
C2891      C2892   1.420       .  A
C2891      C3090   1.481       .  S
C2892      H2895   1.083       .  S
C2896      C3203   1.471       .  S
C2896      N2897   1.356       .  A
C2896      N2901   1.359       .  A
N2897      C2898   1.352       .  A
C2898      C3178   1.466       .  S
C2898      N2899   1.347       .  A
N2899      C2900   1.351       .  A
C2900      C3189   1.467       .  S
C2900      N2901   1.356       .  A
Zr2902     O2908   2.456       .  S
Zr2902     O2913   2.390       .  S
O2903      H2959   0.991       .  S
O2903      H2967   0.990       .  S
O2904      C2924   1.289       .  A
O2905      C2926   1.288       .  A
O2906     Zr2916   2.454       .  S
O2906      C2925   1.286       .  A
O2907     Zr2915   2.425       .  S
O2907      C2926   1.283       .  A
O2908      C2925   1.294       .  A
O2909     Zr2917   2.414       .  S
O2909      C2924   1.271       .  A
O2910     Zr2917   2.387       .  S
O2911     Zr2917   2.377       .  S
O2911      H2946   0.964       .  S
O2912     Zr2915   2.405       .  S
O2912     Zr2932   2.404       .  S
O2912      H2949   0.964       .  S
O2913     Zr2916   2.377       .  S
Zr2914     O2939   2.439   1_545  S
Zr2914     O2941   2.464   1_545  S
Zr2914     O2920   2.413   1_545  S
Zr2914     O2921   2.420   1_545  S
Zr2915     O2934   2.437       .  S
Zr2915     O2922   2.393       .  S
Zr2916     O2918   2.437       .  S
Zr2916     O2942   2.422       .  S
Zr2916     O2923   2.413       .  S
Zr2917     O2943   2.437       .  S
Zr2917     O2944   2.436       .  S
Zr2917     O2919   2.435       .  S
Zr2917     O2920   2.396       .  S
Zr2917     O2921   2.371       .  S
O2918      H2955   0.990       .  S
O2919      H2950   0.990       .  S
O2919      H2964   0.990       .  S
O2921      H2947   0.961       .  S
O2922     Zr2932   2.389       .  S
O2923      H2948   0.966       .  S
O2927      H2963   0.990       .  S
O2928      C2930   1.288       .  A
O2929      C2930   1.290       .  A
O2931     Zr2932   2.439       .  S
O2931      H2960   0.990       .  S
Zr2932     O2935   2.437       .  S
Zr2932     O2936   2.441       .  S
Zr2932     O2937   2.416       .  S
O2934      H2951   0.990       .  S
O2934      H2966   0.990       .  S
O2935      H2952   0.990       .  S
O2936      H2956   0.990       .  S
O2937      C2938   1.276       .  A
O2939      H2958   0.991       .  S
O2939      H2962   0.990   1_565  S
O2940      H2954   0.990       .  S
O2940      H2961   0.990       .  S
O2942      C2945   1.282       .  A
O2943      H2953   0.990       .  S
O2944      H2957   0.990       .  S
C2968      C2973   1.400       .  A
C2968      C3037   1.486       .  S
C2969      C2970   1.426       .  A
C2969      H2974   1.083       .  S
C2970      C2971   1.396       .  A
C2970      C3103   1.485       .  S
C2971      C2972   1.390       .  A
C2971      H2975   1.086       .  S
C2972      C3164   1.474       .  S
C2973      H2976   1.085       .  S
C2977      C2978   1.400       .  A
C2977      C2982   1.423       .  A
C2977      C3110   1.474       .  S
C2978      C2979   1.387       .  A
C2978      H2983   1.086       .  S
C2979      C2980   1.383       .  A
C2979      C3150   1.476       .  S
C2980      C2981   1.406       .  A
C2980      H2984   1.085       .  S
C2981      C2982   1.420       .  A
C2981      C3029   1.483       .  S
C2982      H2985   1.083       .  S
C2986      C2987   1.399       .  A
C2986      C3044   1.478       .  S
C2987      H2992   1.085       .  S
C2988      C2989   1.389       .  A
C2988      C3133   1.470       .  S
C2989      C2990   1.405       .  A
C2989      H2993   1.085       .  S
C2990      C2991   1.424       .  A
C2990      C3095   1.491       .  S
C2991      H2994   1.082       .  S
C2995      C3161   1.472       .  S
C2995      N2996   1.359       .  A
C2997      C3147   1.485       .  S
C2997      N2998   1.357       .  A
C2999      C3136   1.466       .  S
C2999      N3000   1.350       .  A
Zr3001     O3002   2.442       .  S
Zr3001     O3003   2.490       .  S
Zr3001     O3004   2.505       .  S
Zr3001     O3007   2.480       .  S
Zr3001     O3009   2.389       .  S
Zr3001     O3010   2.405       .  S
Zr3001     O3011   2.426       .  S
Zr3001     O3012   2.392       .  S
O3002      H3058   0.990       .  S
O3002      H3066   0.990       .  S
O3003      C3023   1.294       .  A
O3004      C3025   1.296       .  A
O3005     Zr3015   2.447       .  S
O3005      C3024   1.284       .  A
O3006     Zr3014   2.437       .  S
O3006      C3025   1.287       .  A
O3007      C3024   1.298       .  A
O3008     Zr3016   2.421       .  S
O3008      C3023   1.276       .  A
O3009     Zr3014   2.414       .  S
O3009     Zr3016   2.393       .  S
O3010     Zr3015   2.395       .  S
O3010     Zr3016   2.375       .  S
O3010      H3045   0.964       .  S
O3011     Zr3014   2.407       .  S
O3011     Zr3031   2.409       .  S
O3011      H3048   0.964       .  S
O3012     Zr3015   2.385       .  S
O3012     Zr3031   2.363       .  S
Zr3013     O3038   2.443       .  S
Zr3013     O3032   2.489       .  S
Zr3013     O3040   2.470       .  S
Zr3013     O3028   2.443       .  S
Zr3013     O3019   2.425       .  S
Zr3013     O3020   2.423       .  S
Zr3013     O3021   2.375       .  S
Zr3013     O3022   2.382       .  S
Zr3014     O3033   2.434       .  S
Zr3014     O3026   2.436       .  S
Zr3014     O3027   2.473       .  S
Zr3014     O3020   2.401       .  S
Zr3014     O3021   2.396       .  S
Zr3015     O3017   2.437       .  S
Zr3015     O3039   2.439       .  S
Zr3015     O3041   2.429       .  S
Zr3015     O3019   2.389       .  S
Zr3015     O3022   2.412       .  S
Zr3016     O3042   2.436       .  S
Zr3016     O3043   2.437       .  S
Zr3016     O3018   2.438       .  S
Zr3016     O3019   2.406       .  S
Zr3016     O3020   2.368       .  S
O3017      H3054   0.990       .  S
O3018      H3049   0.990       .  S
O3018      H3063   0.990       .  S
O3020      H3046   0.960       .  S
O3021     Zr3031   2.387       .  S
O3022     Zr3031   2.384       .  S
O3022      H3047   0.966       .  S
O3026      H3062   0.990       .  S
O3027      C3029   1.291       .  A
O3028      C3029   1.289       .  A
O3030     Zr3031   2.434       .  S
O3030      H3059   0.990   1_565  S
Zr3031     O3034   2.437       .  S
Zr3031     O3035   2.438       .  S
Zr3031     O3036   2.409       .  S
O3032      C3037   1.292       .  A
O3033      H3050   0.990       .  S
O3033      H3065   0.990       .  S
O3034      H3051   0.990       .  S
O3035      H3055   0.990       .  S
O3035      H3064   0.989       .  S
O3036      C3037   1.271       .  A
O3038      H3057   0.990       .  S
O3038      H3061   0.990       .  S
O3039      H3053   0.990       .  S
O3039      H3060   0.990       .  S
O3040      C3044   1.290       .  A
O3041      C3044   1.283       .  A
O3042      H3052   0.990       .  S
O3043      H3056   0.990       .  S
Zr3067     O3068   2.439       .  S
Zr3067     O3069   2.470       .  S
Zr3067     O3070   2.468       .  S
Zr3067     O3073   2.466       .  S
Zr3067     O3075   2.392       .  S
Zr3067     O3076   2.398       .  S
Zr3067     O3077   2.424       .  S
Zr3067     O3078   2.392       .  S
O3068      H3124   0.990       .  S
O3068      H3132   0.991       .  S
O3069      C3089   1.288       .  A
O3070      C3091   1.288       .  A
O3071     Zr3081   2.447       .  S
O3071      C3090   1.284       .  A
O3072     Zr3080   2.427       .  S
O3072      C3091   1.286       .  A
O3073      C3090   1.294       .  A
O3074     Zr3082   2.424       .  S
O3074      C3089   1.272       .  A
O3075     Zr3080   2.411       .  S
O3075     Zr3082   2.381       .  S
O3076     Zr3081   2.389       .  S
O3076     Zr3082   2.376       .  S
O3076      H3111   0.963       .  S
O3077     Zr3080   2.407       .  S
O3077     Zr3097   2.403       .  S
O3077      H3114   0.965       .  S
O3078     Zr3081   2.386       .  S
O3078     Zr3097   2.369       .  S
Zr3079     O3104   2.440       .  S
Zr3079     O3098   2.494       .  S
Zr3079     O3106   2.455       .  S
Zr3079     O3094   2.480       .  S
Zr3079     O3085   2.429       .  S
Zr3079     O3086   2.417       .  S
Zr3079     O3087   2.378       .  S
Zr3079     O3088   2.394       .  S
Zr3080     O3099   2.436       .  S
Zr3080     O3092   2.435       .  S
Zr3080     O3093   2.463       .  S
Zr3080     O3086   2.403       .  S
Zr3080     O3087   2.391       .  S
Zr3081     O3083   2.436       .  S
Zr3081     O3105   2.439       .  S
Zr3081     O3107   2.421       .  S
Zr3081     O3085   2.394       .  S
Zr3081     O3088   2.402       .  S
Zr3082     O3108   2.432       .  S
Zr3082     O3109   2.436       .  S
Zr3082     O3084   2.435       .  S
Zr3082     O3085   2.411       .  S
Zr3082     O3086   2.364       .  S
O3083      H3120   0.990       .  S
O3084      H3115   0.990       .  S
O3084      H3129   0.990       .  S
O3086      H3112   0.960       .  S
O3087     Zr3097   2.393       .  S
O3088     Zr3097   2.388       .  S
O3088      H3113   0.966       .  S
O3092      H3128   0.990       .  S
O3093      C3095   1.288       .  A
O3094      C3095   1.296       .  A
O3096     Zr3097   2.441       .  S
O3096      H3125   0.991       .  S
Zr3097     O3100   2.437       .  S
Zr3097     O3101   2.437       .  S
Zr3097     O3102   2.408       .  S
O3098      C3103   1.295       .  A
O3099      H3116   0.990       .  S
O3099      H3131   0.990       .  S
O3100      H3117   0.990       .  S
O3101      H3121   0.990       .  S
O3101      H3130   0.989       .  S
O3102      C3103   1.270       .  A
O3104      H3123   0.991       .  S
O3104      H3127   0.990       .  S
O3105      H3119   0.990       .  S
O3105      H3126   0.990       .  S
O3106      C3110   1.287       .  A
O3107      C3110   1.283       .  A
O3108      H3118   0.990       .  S
O3109      H3122   0.990       .  S
C3133      C3138   1.408       .  A
C3134      C3135   1.405       .  A
C3134      C3139   1.451       .  S
C3135      C3142   1.452       .  S
C3136      C3137   1.412       .  A
C3137      C3138   1.404       .  A
C3137      C3140   1.452       .  S
C3138      C3141   1.451       .  S
C3139      N3146   1.157       .  T
C3140      N3145   1.157       .  T
C3141      N3143   1.157       .  T
C3142      N3144   1.157       .  T
C3147      C3148   1.418       .  A
C3147      C3152   1.418       .  A
C3148      C3149   1.411       .  A
C3148      C3153   1.451       .  S
C3149      C3150   1.409       .  A
C3149      C3156   1.452       .  S
C3150      C3151   1.408       .  A
C3151      C3152   1.404       .  A
C3151      C3154   1.454       .  S
C3152      C3155   1.452       .  S
C3153      N3160   1.157       .  T
C3154      N3159   1.157       .  T
C3155      N3157   1.157       .  T
C3156      N3158   1.157       .  T
C3161      C3162   1.412       .  A
C3162      C3163   1.406       .  A
C3162      C3167   1.451       .  S
C3163      C3164   1.411       .  A
C3163      C3170   1.452       .  S
C3165      C3166   1.403       .  A
C3165      C3168   1.452       .  S
C3166      C3169   1.453       .  S
C3167      N3174   1.157       .  T
C3168      N3173   1.157       .  T
C3169      N3171   1.157       .  T
C3170      N3172   1.157       .  T
C3175      C3180   1.407       .  A
C3176      C3177   1.405       .  A
C3176      C3181   1.451       .  S
C3177      C3178   1.412       .  A
C3177      C3184   1.452       .  S
C3178      C3179   1.414       .  A
C3179      C3182   1.452       .  S
C3180      C3183   1.452       .  S
C3181      N3188   1.157       .  T
C3182      N3187   1.157       .  T
C3183      N3185   1.157       .  T
C3184      N3186   1.157       .  T
C3189      C3190   1.410       .  A
C3189      C3194   1.415       .  A
C3190      C3195   1.450       .  S
C3191      C3192   1.410       .  A
C3191      C3198   1.451       .  S
C3193      C3194   1.399       .  A
C3194      C3197   1.454       .  S
C3195      N3202   1.157       .  T
C3196      N3201   1.157       .  T
C3197      N3199   1.157       .  T
C3198      N3200   1.157       .  T
C3203      C3204   1.414       .  A
C3203      C3208   1.411       .  A
C3204      C3205   1.405       .  A
C3204      C3209   1.452       .  S
C3205      C3206   1.410       .  A
C3205      C3212   1.452       .  S
C3206      C3207   1.412       .  A
C3207      C3208   1.404       .  A
C3207      C3210   1.452       .  S
C3208      C3211   1.452       .  S
C3209      N3216   1.157       .  T
C3210      N3215   1.157       .  T
C3211      N3213   1.157       .  T
C3212      N3214   1.157       .  T
C3217      C3218   1.410       .  A
C3217      C3222   1.408       .  A
C3218      C3219   1.402       .  A
C3218      C3223   1.452       .  S
C3219      C3220   1.412       .  A
C3219      C3226   1.453       .  S
C3220      C3221   1.416       .  A
C3221      C3222   1.404       .  A
C3221      C3224   1.452       .  S
C3222      C3225   1.453       .  S
C3223      N3230   1.157       .  T
C3224      N3229   1.158       .  T
C3225      N3227   1.157       .  T
C3226      N3228   1.157       .  T
C3231      C3232   1.411       .  A
C3231      C3236   1.409       .  A
C3232      C3233   1.411       .  A
C3232      C3237   1.451       .  S
C3233      C3234   1.411       .  A
C3233      C3240   1.450       .  S
C3234      C3235   1.412       .  A
C3235      C3236   1.405       .  A
C3235      C3238   1.452       .  S
C3236      C3239   1.451       .  S
C3237      N3244   1.157       .  T
C3238      N3243   1.157       .  T
C3240      N3242   1.157       .  T
C3245      C3246   1.413       .  A
C3245      C3250   1.417       .  A
C3246      C3247   1.403       .  A
C3246      C3251   1.453       .  S
C3247      C3248   1.412       .  A
C3247      C3254   1.453       .  S
C3248      C3249   1.410       .  A
C3249      C3250   1.408       .  A
C3249      C3252   1.452       .  S
C3250      C3253   1.452       .  S
C3251      N3258   1.157       .  T
C3252      N3257   1.157       .  T
C3253      N3255   1.158       .  T
C3254      N3256   1.157       .  T
C3259      C3264   1.413       .  A
C3260      C3261   1.406       .  A
C3260      C3265   1.451       .  S
C3261      C3268   1.451       .  S
C3262      C3263   1.411       .  A
C3263      C3264   1.408       .  A
C3263      C3266   1.452       .  S
C3264      C3267   1.452       .  S
C3265      N3272   1.157       .  T
C3266      N3271   1.157       .  T
C3267      N3269   1.157       .  T
C3268      N3270   1.157       .  T
C3273      C3274   1.414       .  A
C3274      C3275   1.410       .  A
C3274      C3279   1.451       .  S
C3275      C3276   1.413       .  A
C3275      C3282   1.452       .  S
C3277      C3278   1.403       .  A
C3277      C3280   1.454       .  S
C3278      C3281   1.452       .  S
C3279      N3286   1.157       .  T
C3280      N3285   1.157       .  T
C3282      N3284   1.157       .  T
C3287      C3288   1.413       .  A
C3287      C3292   1.410       .  A
C3288      C3289   1.407       .  A
C3288      C3293   1.450       .  S
C3289      C3290   1.406       .  A
C3289      C3296   1.450       .  S
C3290      C3291   1.411       .  A
C3291      C3292   1.399       .  A
C3291      C3294   1.455       .  S
C3292      C3295   1.453       .  S
C3293      N3300   1.157       .  T
C3294      N3299   1.157       .  T
C3295      N3297   1.157       .  T
C3296      N3298   1.157       .  T
C3301      C3302   1.409       .  A
C3301      C3306   1.411       .  A
C3302      C3307   1.451       .  S
C3303      C3304   1.412       .  A
C3303      C3310   1.450   1_455  S
C3305      C3306   1.403       .  A
C3305      C3308   1.452       .  S
C3306      C3309   1.452       .  S
C3307      N3314   1.157       .  T
C3308      N3313   1.157       .  T
C3309      N3311   1.157       .  T
C3310      N3312   1.157       .  T
C3315      C3316   1.412       .  A
C3315      C3320   1.411       .  A
C3316      C3317   1.407       .  A
C3316      C3321   1.451       .  S
C3317      C3318   1.410       .  A
C3317      C3324   1.451       .  S
C3318      C3319   1.411       .  A
C3319      C3320   1.406       .  A
C3319      C3322   1.452       .  S
C3320      C3323   1.452       .  S
C3321      N3328   1.157       .  T
C3322      N3327   1.157       .  T
C3323      N3325   1.157       .  T
C3324      N3326   1.157       .  T
C3329      C3330   1.409       .  A
C3329      C3334   1.409       .  A
C3330      C3331   1.407       .  A
C3330      C3335   1.450       .  S
C3331      C3332   1.412       .  A
C3331      C3338   1.451       .  S
C3332      C3333   1.411       .  A
C3333      C3334   1.402       .  A
C3333      C3336   1.452       .  S
C3334      C3337   1.452       .  S
C3336      N3341   1.157       .  T
C3337      N3339   1.157       .  T
C3338      N3340   1.157       .  T
C3343      C3344   1.419       .  A
C3343      C3348   1.416       .  A
C3344      C3345   1.401       .  A
C3345      C3346   1.404       .  A
C3345      C3352   1.448       .  S
C3346      C3347   1.423       .  A
C3347      C3348   1.408       .  A
C3347      C3350   1.453       .  S
C3348      C3351   1.454       .  S
C3349      N3356   1.157       .  T
C3350      N3355   1.158       .  T
C3351      N3353   1.158       .  T
C3352      N3354   1.157       .  T
C3357      C3358   1.409       .  A
C3357      C3362   1.404       .  A
C3358      C3359   1.394       .  A
C3358      C3363   1.455       .  S
C3359      C3360   1.407       .  A
C3359      C3366   1.452       .  S
C3360      C3361   1.410       .  A
C3361      C3362   1.405       .  A
C3361      C3364   1.450       .  S
C3362      C3365   1.450       .  S
C3363      N3370   1.157       .  T
C3364      N3369   1.157       .  T
C3365      N3367   1.157       .  T
C3366      N3368   1.157       .  T
C3371      C3372   1.416       .  A
C3371      C3376   1.411       .  A
C3372      C3373   1.397       .  A
C3372      C3377   1.454       .  S
C3373      C3374   1.406       .  A
C3373      C3380   1.445       .  S
C3374      C3375   1.422       .  A
C3375      C3376   1.411       .  A
C3375      C3378   1.453       .  S
C3376      C3379   1.452   1_655  S
C3377      N3384   1.157       .  T
C3378      N3383   1.158       .  T
C3380      N3382   1.156       .  T
