geometry optimzed in LAMMPS
_audit_creation_date              2020-12-01 
_audit_creation_method            'lammps2cif' 
_symmetry_space_group_name_H-M    'P1' 
_symmetry_Int_Tables_number       1 
_symmetry_cell_setting            triclinic 
loop_ 
_symmetry_equiv_pos_as_xyz 
  x,y,z 
_cell_length_a                    44.03874949 
_cell_length_b                    44.073515809414104 
_cell_length_c                    88.55027249825812 
_cell_angle_alpha                 90.26960762400284 
_cell_angle_beta                  89.67535504063544 
_cell_angle_gamma                 121.16453850164886 
loop_ 
_atom_site_label 
_atom_site_type_symbol 
_atom_site_fract_x 
_atom_site_fract_y 
_atom_site_fract_z 
_atom_site_charge 
C1          C  0.96640832  0.98967815  0.89096394     0.03000
C2          C  0.97771791  0.02561553  0.88933388    -0.13100
C3          C  0.01381062  0.05105177  0.88780061     0.00500
C4          C  0.03878799  0.04039034  0.88738919    -0.11700
C5          C  0.02779513  0.00431451  0.88860546     0.03000
C6          C  0.99166997  0.97933647  0.89108415    -0.11100
H7          H  0.95832404  0.03367436  0.88853052     0.08600
H8          H  0.06643019  0.05993683  0.88521088     0.06100
H9          H  0.98287251  0.95147975  0.89211099     0.06000
N10         N  0.21923752  0.90529059  0.82461245    -0.27400
N11         N  0.18980128  0.90632811  0.82415963    -0.35300
C12         C  0.17127981  0.88945565  0.81170174     0.00900
C13         C  0.18983166  0.87707772  0.80377888     0.07000
C14         C  0.22024326  0.88769345  0.81227297    -0.06100
H15         H  0.14584344  0.88597362  0.80877922     0.07600
H16         H  0.24109947  0.88229112  0.80984170     0.08800
Cu17       Cu  0.17518201  0.92889374  0.84097471     0.44200
Cu18       Cu  0.25452480  0.92646903  0.84294083     0.42000
Cu19       Cu  0.22057952  0.95069690  0.87657663     0.43900
N20         N  0.16121503  0.94839097  0.85925019    -0.34800
N21         N  0.17649557  0.95517312  0.87262584    -0.29000
C22         C  0.15970468  0.96601045  0.88201747    -0.05100
C23         C  0.13282524  0.96648434  0.87402893     0.07100
C24         C  0.13476042  0.95498911  0.85966795     0.00900
H25         H  0.16635543  0.97251826  0.89378825     0.08500
H26         H  0.11807203  0.95158866  0.85011158     0.07600
N27         N  0.26891584  0.95280994  0.87565254    -0.36200
N28         N  0.28218374  0.94646997  0.86338700    -0.28400
C29         C  0.31604121  0.95591518  0.86621406    -0.03700
C30         C  0.32407473  0.96784809  0.88099501     0.05000
C31         C  0.29363078  0.96554555  0.88660969     0.03000
H32         H  0.33386196  0.95512562  0.85798216     0.08200
H33         H  0.29053936  0.97494783  0.89748302     0.07000
N34         N  0.12950777  0.34389708  0.82261641    -0.27400
N35         N  0.13320011  0.31605854  0.82377187    -0.35300
C36         C  0.15085689  0.31433912  0.81168291     0.00900
C37         C  0.15901907  0.34248260  0.80231645     0.07000
C38         C  0.14511198  0.36078307  0.80958682    -0.06100
H39         H  0.15729805  0.29400065  0.80989078     0.07600
H40         H  0.14630562  0.38460691  0.80569243     0.08800
Cu41       Cu  0.11399829  0.28078116  0.84145287     0.44200
Cu42       Cu  0.10341806  0.35676404  0.83936277     0.42000
Cu43       Cu  0.07469630  0.29804276  0.87280183     0.43900
N44         N  0.08951545  0.24522341  0.85878446    -0.34800
N45         N  0.07466841  0.25112757  0.87052988    -0.29000
C46         C  0.05822416  0.22157113  0.87904844    -0.05100
C47         C  0.06273319  0.19590080  0.87211988     0.07100
C48         C  0.08302756  0.21199012  0.85942080     0.00900
H49         H  0.04267396  0.21841565  0.88906261     0.08500
H50         H  0.09135301  0.20001039  0.85094287     0.07600
N51         N  0.07184073  0.34348960  0.87118677    -0.36200
N52         N  0.07958916  0.36343697  0.85895162    -0.28400
C53         C  0.07036811  0.38788717  0.86157166    -0.03700
C54         C  0.05719589  0.38355432  0.87621608     0.05000
C55         C  0.05862465  0.35525319  0.88191158     0.03000
H56         H  0.07303976  0.40738239  0.85344547     0.08200
H57         H  0.04904459  0.34289811  0.89282213     0.07000
N58         N  0.67873500  0.81278347  0.82590225    -0.27400
N59         N  0.70515186  0.84590920  0.82758109    -0.35300
C60         C  0.70649655  0.86520460  0.81558561     0.00900
C61         C  0.67951356  0.84338711  0.80580849     0.07000
C62         C  0.66238631  0.81028117  0.81270654    -0.06100
H63         H  0.72550683  0.89321318  0.81420301     0.07600
H64         H  0.63955832  0.78623861  0.80850118     0.08800
Cu65       Cu  0.73816716  0.86375886  0.84613766     0.44200
Cu66       Cu  0.66629056  0.77335039  0.84221118     0.42000
Cu67       Cu  0.71546258  0.80544449  0.87783269     0.43900
N68         N  0.77056697  0.87514432  0.86468214    -0.34800
N69         N  0.76229683  0.85406749  0.87650632    -0.29000
C70         C  0.79070293  0.86693738  0.88564179    -0.05100
C71         C  0.81802070  0.89741481  0.87913651     0.07100
C72         C  0.80436292  0.90186066  0.86590693     0.00900
H73         H  0.79223797  0.85360570  0.89557592     0.08500
H74         H  0.81866896  0.92166901  0.85730710     0.07600
N75         N  0.67373189  0.75408457  0.87441334    -0.36200
N76         N  0.65769839  0.74148634  0.86129040    -0.28400
C77         C  0.63569287  0.70609705  0.86260688    -0.03700
C78         C  0.63744086  0.69636668  0.87730580     0.05000
C79         C  0.66173463  0.72742916  0.88444344     0.03000
H80         H  0.61974908  0.68869944  0.85353184     0.08200
H81         H  0.67156480  0.73016577  0.89584214     0.07000
C82         C  0.32626759  0.64570758  0.70624777     0.03000
C83         C  0.30069572  0.65569406  0.70694321    -0.13100
C84         C  0.31125271  0.69168939  0.70753518     0.00500
C85         C  0.34740923  0.71765422  0.70717336    -0.11700
C86         C  0.37312972  0.70803983  0.70655709     0.03000
C87         C  0.36246493  0.67207511  0.70569257    -0.11100
H88         H  0.27283779  0.63557351  0.70806672     0.08600
H89         H  0.35561125  0.74533966  0.70850257     0.06100
H90         H  0.38230742  0.66453770  0.70589662     0.06000
N91         N  0.14709348  0.82399118  0.76985284    -0.27400
N92         N  0.17796224  0.82567040  0.76949591    -0.35300
C93         C  0.19772883  0.84473491  0.78135725     0.00900
C94         C  0.17861682  0.85586327  0.78967609     0.07000
C95         C  0.14660538  0.84226836  0.78204100    -0.06100
H96         H  0.22409894  0.85000811  0.78374724     0.07600
H97         H  0.12450560  0.84524370  0.78517839     0.08800
Cu98       Cu  0.19202442  0.80174758  0.75301658     0.44200
Cu99       Cu  0.10748945  0.79642632  0.75342924     0.42000
Cu100      Cu  0.13493993  0.76441301  0.72079078     0.43900
N101        N  0.20063647  0.77496302  0.73589489    -0.34800
N102        N  0.18024825  0.76173520  0.72385303    -0.29000
C103        C  0.19225659  0.74472843  0.71529723    -0.05100
C104        C  0.22166546  0.74754999  0.72232648     0.07100
C105        C  0.22599369  0.76668822  0.73538278     0.00900
H106        H  0.17974122  0.73029340  0.70504132     0.08500
H107        H  0.24585602  0.77365774  0.74401442     0.07600
N108        N  0.08608882  0.76080174  0.72252190    -0.36200
N109        N  0.07488357  0.76976220  0.73470704    -0.28400
C110        C  0.04021374  0.75860974  0.73287285    -0.03700
C111        C  0.02954166  0.74282029  0.71875936     0.05000
C112        C  0.05931156  0.74473797  0.71254488     0.03000
H113        H  0.02381174  0.76127575  0.74127530     0.08200
H114        H  0.06077458  0.73317253  0.70196527     0.07000
N115        N  0.20788990  0.34931797  0.76749442    -0.27400
N116        N  0.20582953  0.37813783  0.76665403    -0.35300
C117        C  0.18823358  0.37998638  0.77874406     0.00900
C118        C  0.17858199  0.35095878  0.78779770     0.07000
C119        C  0.19148193  0.33198822  0.78033108    -0.06100
H120        H  0.18304321  0.40110918  0.78080152     0.07600
H121        H  0.18905361  0.30741436  0.78395412     0.08800
Cu122      Cu  0.22743292  0.41424818  0.74929507     0.44200
Cu123      Cu  0.23300795  0.33612021  0.75053645     0.42000
Cu124      Cu  0.26487045  0.39607161  0.71715813     0.43900
N125        N  0.25152604  0.44956369  0.73180484    -0.34800
N126        N  0.26512552  0.44333323  0.71968678    -0.29000
C127        C  0.28009772  0.47255560  0.71089416    -0.05100
C128        C  0.27554749  0.49813182  0.71795236     0.07100
C129        C  0.25756412  0.48263399  0.73117820     0.00900
H130        H  0.29449446  0.47551577  0.70052883     0.08500
H131        H  0.25020327  0.49487179  0.73993032     0.07600
N132        N  0.26624407  0.34954883  0.71895803    -0.36200
N133        N  0.25695939  0.32922581  0.73114645    -0.28400
C134        C  0.26564283  0.30429666  0.72891442    -0.03700
C135        C  0.28014012  0.30858106  0.71457088     0.05000
C136        C  0.28010656  0.33749166  0.70862594     0.03000
H137        H  0.26219839  0.28481506  0.73721259     0.08200
H138        H  0.29135829  0.35020141  0.69792058     0.07000
N139        N  0.67015991  0.88439815  0.77154287    -0.27400
N140        N  0.64161674  0.85222653  0.77075339    -0.35300
C141        C  0.64092556  0.83285202  0.78258769     0.00900
C142        C  0.67033178  0.85365500  0.79142151     0.07000
C143        C  0.68834775  0.88623382  0.78409030    -0.06100
H144        H  0.62011808  0.80573349  0.78471893     0.07600
H145        H  0.71278494  0.90956176  0.78764866     0.08800
Cu146      Cu  0.60360141  0.83595433  0.75411430     0.44200
Cu147      Cu  0.68237897  0.92375501  0.75512068     0.42000
Cu148      Cu  0.62412995  0.89262134  0.72202143     0.43900
N149        N  0.56771041  0.82603011  0.73710394    -0.34800
N150        N  0.57526178  0.84627454  0.72503899    -0.29000
C151        C  0.54585821  0.83354079  0.71652294    -0.05100
C152        C  0.51849300  0.80423045  0.72374488     0.07100
C153        C  0.53340127  0.80008648  0.73668111     0.00900
H154        H  0.54414771  0.84554365  0.70618389     0.08500
H155        H  0.52015414  0.78003940  0.74529259     0.07600
N156        N  0.66944617  0.94277988  0.72372406    -0.36200
N157        N  0.68910846  0.95530491  0.73604666    -0.28400
C158        C  0.71275149  0.99022561  0.73400150    -0.03700
C159        C  0.70821796  0.99971174  0.71962710     0.05000
C160        C  0.68061258  0.96895437  0.71347440     0.03000
H161        H  0.73159779  0.00753382  0.74239838     0.08200
H162        H  0.66810274  0.96629003  0.70267088     0.07000
C163        C  0.00190007  0.96236488  0.04315768     0.03000
C164        C  0.03795904  0.98842373  0.04166644    -0.13100
C165        C  0.04884633  0.02442273  0.04048407     0.00500
C166        C  0.02308025  0.03417483  0.04083674    -0.11700
C167        C  0.98697319  0.00854966  0.04304417     0.03000
C168        C  0.97653141  0.97257152  0.04379192    -0.11100
H169        H  0.05768713  0.98075433  0.04208859     0.08600
H170        H  0.03138035  0.06197668  0.04026095     0.06100
H171        H  0.94893510  0.95268348  0.04585077     0.06000
N172        N  0.79596947  0.10892445  0.10723301    -0.27400
N173        N  0.82397292  0.10550185  0.10830707    -0.35300
C174        C  0.84257460  0.12262035  0.12072496     0.00900
C175        C  0.82550330  0.13760183  0.12791595     0.07000
C176        C  0.79597638  0.12832451  0.11906069    -0.06100
H177        H  0.86702163  0.12443526  0.12412423     0.07600
H178        H  0.77631408  0.13567470  0.12092756     0.08800
Cu179      Cu  0.83671248  0.07967065  0.09222631     0.44200
Cu180      Cu  0.76070275  0.08811013  0.08899303     0.42000
Cu181      Cu  0.79248846  0.06016154  0.05615648     0.43900
N182        N  0.85040477  0.05993064  0.07388840    -0.34800
N183        N  0.83610114  0.05466080  0.06034534    -0.29000
C184        C  0.85345996  0.04461310  0.05087089    -0.05100
C185        C  0.87958240  0.04284009  0.05895488     0.07100
C186        C  0.87657939  0.05288300  0.07349540     0.00900
H187        H  0.84782439  0.03974905  0.03895262     0.08500
H188        H  0.89254235  0.05530330  0.08318297     0.07600
N189        N  0.74465594  0.05952224  0.05677502    -0.36200
N190        N  0.73221297  0.06745336  0.06886612    -0.28400
C191        C  0.69876150  0.05937669  0.06603129    -0.03700
C192        C  0.69007539  0.04661606  0.05139002     0.05000
C193        C  0.71976086  0.04707363  0.04588042     0.03000
H194        H  0.68173946  0.06193451  0.07413495     0.08200
H195        H  0.72221753  0.03690490  0.03509160     0.07000
N196        N  0.35202296  0.19584117  0.09864421    -0.27400
N197        N  0.32191196  0.16482843  0.09880158    -0.35300
C198        C  0.32081856  0.14653379  0.11114522     0.00900
C199        C  0.35166047  0.16683004  0.11929861     0.07000
C200        C  0.37088104  0.19796853  0.11101564    -0.06100
H201        H  0.29887203  0.12048928  0.11406465     0.07600
H202        H  0.39654957  0.22061538  0.11385016     0.08800
Cu203      Cu  0.28296484  0.14887396  0.08241558     0.44200
Cu204      Cu  0.36486751  0.23356796  0.08136343     0.42000
Cu205      Cu  0.30631529  0.20081994  0.04833015     0.43900
N206        N  0.24756099  0.13824804  0.06493028    -0.34800
N207        N  0.25623812  0.15617447  0.05211271    -0.29000
C208        C  0.22687717  0.14371229  0.04354613    -0.05100
C209        C  0.19841233  0.11707117  0.05148912     0.07100
C210        C  0.21254828  0.11426968  0.06494650     0.00900
H211        H  0.22592912  0.15459496  0.03275695     0.08500
H212        H  0.19820381  0.09679054  0.07426921     0.07600
N213        N  0.35105280  0.25167620  0.04988989    -0.36200
N214        N  0.37053616  0.26465062  0.06223932    -0.28400
C215        C  0.39235508  0.30001698  0.06047307    -0.03700
C216        C  0.38688580  0.30951817  0.04625814     0.05000
C217        C  0.36067791  0.27811924  0.03987913     0.03000
H218        H  0.41022280  0.31770161  0.06905028     0.08200
H219        H  0.34752120  0.27520223  0.02922370     0.07000
N220        N  0.88512100  0.67388470  0.11190570    -0.27400
N221        N  0.88127395  0.70156872  0.11042088    -0.35300
C222        C  0.86259168  0.70303713  0.12219447     0.00900
C223        C  0.85416968  0.67504196  0.13173640     0.07000
C224        C  0.86897823  0.65711088  0.12488366    -0.06100
H225        H  0.85574840  0.72316422  0.12369600     0.07600
H226        H  0.86765358  0.63333665  0.12893891     0.08800
Cu227      Cu  0.90166487  0.73658463  0.09254109     0.44200
Cu228      Cu  0.91101081  0.66019187  0.09537206     0.42000
Cu229      Cu  0.93463477  0.71303983  0.06032629     0.43900
N230        N  0.92538196  0.76994411  0.07432877    -0.34800
N231        N  0.93700081  0.76142517  0.06219060    -0.29000
C232        C  0.95280637  0.78975346  0.05291537    -0.05100
C233        C  0.95130633  0.81734615  0.05972111     0.07100
C234        C  0.93361372  0.80374672  0.07321521     0.00900
H235        H  0.96600726  0.79078811  0.04242182     0.08500
H236        H  0.92813630  0.81777373  0.08183318     0.07600
N237        N  0.93880210  0.66832206  0.06300845    -0.36200
N238        N  0.93319528  0.65087489  0.07587020    -0.28400
C239        C  0.94360060  0.62708728  0.07402072    -0.03700
C240        C  0.95536630  0.62912053  0.05924675     0.05000
C241        C  0.95177522  0.65543551  0.05264599     0.03000
H242        H  0.94286764  0.60971734  0.08279148     0.08200
H243        H  0.96002654  0.66595592  0.04136702     0.07000
C244        C  0.69502244  0.37414789  0.22819474     0.03000
C245        C  0.65831058  0.35093399  0.22949923    -0.13100
C246        C  0.64311197  0.31410455  0.22750367     0.00500
C247        C  0.66589433  0.30086798  0.22527307    -0.11700
C248        C  0.70289859  0.32378583  0.22521358     0.03000
C249        C  0.71727541  0.36041048  0.22656250    -0.11100
H250        H  0.64146985  0.36198975  0.23081360     0.08600
H251        H  0.65504795  0.27309301  0.22270821     0.06100
H252        H  0.74566592  0.37836854  0.22538332     0.06000
N253        N  0.35913441  0.12927347  0.15507891    -0.27400
N254        N  0.38820321  0.16110259  0.15550737    -0.35300
C255        C  0.39033280  0.17895037  0.14283841     0.00900
C256        C  0.36111348  0.15754053  0.13393170     0.07000
C257        C  0.34190459  0.12618801  0.14206331    -0.06100
H258        H  0.41126662  0.20586981  0.14045314     0.07600
H259        H  0.31695129  0.10303008  0.13885170     0.08800
Cu260      Cu  0.42261860  0.17950653  0.17377693     0.44200
Cu261      Cu  0.34434089  0.09252797  0.17285126     0.42000
Cu262      Cu  0.39472109  0.12719591  0.20803362     0.43900
N263        N  0.45262034  0.19377880  0.19339562    -0.34800
N264        N  0.44243870  0.17525437  0.20604841    -0.29000
C265        C  0.46862609  0.19138442  0.21630835    -0.05100
C266        C  0.49647926  0.22178278  0.20984930     0.07100
C267        C  0.48540755  0.22203775  0.19525320     0.00900
H268        H  0.46770443  0.18136500  0.22753886     0.08500
H269        H  0.50054443  0.24072489  0.18639689     0.07600
N270        N  0.35117524  0.07606380  0.20565528    -0.36200
N271        N  0.33450821  0.06260000  0.19272007    -0.28400
C272        C  0.31110699  0.02766035  0.19469666    -0.03700
C273        C  0.31258793  0.01901184  0.20961359     0.05000
C274        C  0.33817683  0.05037982  0.21621597     0.03000
H275        H  0.29432585  0.00979106  0.18591072     0.08200
H276        H  0.34802498  0.05387491  0.22764537     0.07000
N277        N  0.86735247  0.19033393  0.16195065    -0.27400
N278        N  0.83785745  0.19129635  0.16141898    -0.35300
C279        C  0.81875996  0.17295647  0.14930892     0.00900
C280        C  0.83686308  0.15951613  0.14179303     0.07000
C281        C  0.86760927  0.17102806  0.15012573    -0.06100
H282        H  0.79337649  0.16947157  0.14628299     0.07600
H283        H  0.88860463  0.16578808  0.14776241     0.08800
Cu284      Cu  0.82403047  0.21659394  0.17733617     0.44200
Cu285      Cu  0.90532071  0.21571872  0.17902522     0.42000
Cu286      Cu  0.87764518  0.25058609  0.21062356     0.43900
N287        N  0.81366542  0.24181899  0.19458378    -0.34800
N288        N  0.83269170  0.25362563  0.20705847    -0.29000
C289        C  0.81975124  0.26965390  0.21569640    -0.05100
C290        C  0.79154529  0.26815139  0.20815459     0.07100
C291        C  0.78829421  0.25010725  0.19487826     0.00900
H292        H  0.83096652  0.28274507  0.22633996     0.08500
H293        H  0.76934195  0.24408508  0.18593576     0.07600
N294        N  0.92590468  0.25277841  0.20959239    -0.36200
N295        N  0.93697286  0.24230033  0.19784757    -0.28400
C296        C  0.97118197  0.25225030  0.20009113    -0.03700
C297        C  0.98168789  0.26889284  0.21402025     0.05000
C298        C  0.95238072  0.26879216  0.21969852     0.03000
H299        H  0.98739964  0.24823068  0.19206895     0.08200
H300        H  0.95107238  0.28140884  0.22998796     0.07000
N301        N  0.80015229  0.66515060  0.16533833    -0.27400
N302        N  0.80914111  0.64128277  0.16794807    -0.35300
C303        C  0.82927118  0.64112900  0.15649949     0.00900
C304        C  0.83371122  0.66628686  0.14607052     0.07000
C305        C  0.81492516  0.68113407  0.15204307    -0.06100
H306        H  0.83994259  0.62388657  0.15585781     0.07600
H307        H  0.81204013  0.70183829  0.14703021     0.08800
Cu308      Cu  0.79329083  0.60876673  0.18665095     0.44200
Cu309      Cu  0.76770789  0.67365240  0.18046150     0.42000
Cu310      Cu  0.73467030  0.61264636  0.21316935     0.43900
N311        N  0.76898920  0.57217835  0.20373572    -0.34800
N312        N  0.74567080  0.57212179  0.21316846    -0.29000
C313        C  0.73063634  0.54192243  0.22128014    -0.05100
C314        C  0.74573664  0.52227488  0.21685833     0.07100
C315        C  0.76992957  0.54253359  0.20569886     0.00900
H316        H  0.70888256  0.53399246  0.22911372     0.08500
H317        H  0.78572756  0.53537766  0.19886247     0.07600
N318        N  0.72802992  0.65575989  0.21064977    -0.36200
N319        N  0.73776269  0.67666358  0.19864371    -0.28400
C320        C  0.72644997  0.69972215  0.20058282    -0.03700
C321        C  0.70977775  0.69349461  0.21457472     0.05000
C322        C  0.71144502  0.66557768  0.22059359     0.03000
H323        H  0.73037727  0.71978005  0.19250033     0.08200
H324        H  0.70024131  0.65244371  0.23123366     0.07000
C325        C  0.30467573  0.64699151  0.05490365     0.03000
C326        C  0.31534342  0.62213740  0.05609197    -0.13100
C327        C  0.35147794  0.63298443  0.05535228     0.00500
C328        C  0.37699753  0.66922263  0.05360132    -0.11700
C329        C  0.36644667  0.69427224  0.05252672     0.03000
C330        C  0.33036640  0.68304937  0.05350639    -0.11100
H331        H  0.29541856  0.59413218  0.05667095     0.08600
H332        H  0.40475249  0.67767978  0.05225476     0.06100
H333        H  0.32208008  0.70215082  0.05214036     0.06000
N334        N  0.54624416  0.99611244  0.99007377    -0.27400
N335        N  0.51530684  0.96599896  0.98939411    -0.35300
C336        C  0.49659062  0.96696529  0.97765604     0.00900
C337        C  0.51652016  0.99924311  0.97050949     0.07000
C338        C  0.54794407  0.01708337  0.97864243    -0.06100
H339        H  0.47010695  0.94588222  0.97473012     0.07600
H340        H  0.57004832  0.04363115  0.97660999     0.08800
Cu341      Cu  0.49831669  0.92552394  0.00490755     0.44200
Cu342      Cu  0.58333482  0.00748238  0.00731367     0.42000
Cu343      Cu  0.54839217  0.94620882  0.03922161     0.43900
N344        N  0.48459771  0.88998474  0.02243909    -0.34800
N345        N  0.50225156  0.89769760  0.03528214    -0.29000
C346        C  0.48708775  0.86871220  0.04413792    -0.05100
C347        C  0.45850561  0.84156985  0.03646688     0.07100
C348        C  0.45790788  0.85599016  0.02272111     0.00900
H349        H  0.49698971  0.86710226  0.05507461     0.08500
H350        H  0.43971263  0.84258821  0.01349628     0.07600
N351        N  0.59857309  0.99181927  0.03883653    -0.36200
N352        N  0.61243407  0.01270415  0.02691801    -0.28400
C353        C  0.64704011  0.03621929  0.02968132    -0.03700
C354        C  0.65495129  0.03031034  0.04411404     0.05000
C355        C  0.62359602  0.00205933  0.04956405     0.03000
H356        H  0.66524741  0.05577938  0.02169528     0.08200
H357        H  0.61985440  0.98841104  0.06016060     0.07000
N358        N  0.46186680  0.46241794  0.98784862    -0.27400
N359        N  0.46436501  0.49348497  0.98934356    -0.35300
C360        C  0.48062358  0.51360072  0.97713706     0.00900
C361        C  0.48901433  0.49444100  0.96739672     0.07000
C362        C  0.47665812  0.46203604  0.97452187    -0.06100
H363        H  0.48647302  0.54045477  0.97562815     0.07600
H364        H  0.47896118  0.44011483  0.97047136     0.08800
Cu365      Cu  0.44698254  0.50766516  0.00820997     0.44200
Cu366      Cu  0.43987949  0.42332984  0.00477218     0.42000
Cu367      Cu  0.41596826  0.44935583  0.04054975     0.43900
N368        N  0.42677254  0.51731824  0.02743528    -0.34800
N369        N  0.41514907  0.49650619  0.03943321    -0.29000
C370        C  0.40040766  0.50914222  0.04910099    -0.05100
C371        C  0.40290765  0.53908505  0.04271975     0.07100
C372        C  0.41985620  0.54341688  0.02906528     0.00900
H373        H  0.38679455  0.49621074  0.05945574     0.08500
H374        H  0.42483567  0.56289909  0.02049467     0.07600
N375        N  0.41384599  0.40109276  0.03716468    -0.36200
N376        N  0.42023093  0.39080671  0.02404357    -0.28400
C377        C  0.41232661  0.35695310  0.02535535    -0.03700
C378        C  0.40133272  0.34566235  0.04004959     0.05000
C379        C  0.40270959  0.37437795  0.04719331     0.03000
H380        H  0.41422594  0.34156381  0.01624857     0.08200
H381        H  0.39436362  0.37511843  0.05863361     0.07000
N382        N  0.00663748  0.53607549  0.99803698    -0.27400
N383        N  0.03373460  0.53109409  0.99864673    -0.35300
C384        C  0.03505946  0.51496335  0.98594149     0.00900
C385        C  0.00743051  0.50929013  0.97671727     0.07000
C386        C  0.98984167  0.52296880  0.98474949    -0.06100
H387        H  0.05503754  0.50829626  0.98353995     0.07600
H388        H  0.96676860  0.52362548  0.98113088     0.08800
Cu389      Cu  0.06895280  0.54808890  0.01633286     0.44200
Cu390      Cu  0.99563499  0.56147268  0.01571698     0.42000
Cu391      Cu  0.05617422  0.58985145  0.04868314     0.43900
N392        N  0.10552928  0.57128740  0.03340043    -0.34800
N393        N  0.10159698  0.58685432  0.04541411    -0.29000
C394        C  0.13191449  0.60179099  0.05348948    -0.05100
C395        C  0.15577143  0.59513099  0.04609027     0.07100
C396        C  0.13809089  0.57590924  0.03341315     0.00900
H397        H  0.13689391  0.61784708  0.06350093     0.08500
H398        H  0.14866879  0.56713204  0.02448467     0.07600
N399        N  0.01110490  0.59412257  0.04746719    -0.36200
N400        N  0.99060925  0.58601395  0.03539236    -0.28400
C401        C  0.96696540  0.59631393  0.03791664    -0.03700
C402        C  0.97221764  0.61069930  0.05233123     0.05000
C403        C  0.00037161  0.60879304  0.05802267     0.03000
H404        H  0.94764248  0.59397653  0.02977514     0.08200
H405        H  0.01350517  0.61928751  0.06871655     0.07000
C406        C  0.71661296  0.36736555  0.87091130     0.03000
C407        C  0.70160217  0.38851124  0.86892017    -0.13100
C408        C  0.66518684  0.37436287  0.87113645     0.00500
C409        C  0.64292282  0.33807131  0.87389829    -0.11700
C410        C  0.65730711  0.31642016  0.87535127     0.03000
C411        C  0.69403472  0.33111099  0.87407741    -0.11100
H412        H  0.71853328  0.41669599  0.86685936     0.08600
H413        H  0.61483293  0.32714626  0.87590251     0.06100
H414        H  0.70501155  0.31464996  0.87652745     0.06000
N415        N  0.00074946  0.46713948  0.93996621    -0.27400
N416        N  0.97358996  0.47205797  0.93935352    -0.35300
C417        C  0.97187682  0.48759680  0.95217991     0.00900
C418        C  0.99922791  0.49287032  0.96149149     0.07000
C419        C  0.01708589  0.47959767  0.95338849    -0.06100
H420        H  0.95205558  0.49450616  0.95453047     0.07600
H421        H  0.04028359  0.47913736  0.95697751     0.08800
Cu422      Cu  0.93951700  0.45728385  0.92125836     0.44200
Cu423      Cu  0.01366823  0.44399147  0.92196043     0.42000
Cu424      Cu  0.96236297  0.42910474  0.88723559     0.43900
N425        N  0.90778602  0.44013973  0.90234711    -0.34800
N426        N  0.91619807  0.43032183  0.88966410    -0.29000
C427        C  0.88943087  0.41970753  0.87977905    -0.05100
C428        C  0.86308098  0.42345132  0.88654967     0.07100
C429        C  0.87552608  0.43594061  0.90094498     0.00900
H430        H  0.88896087  0.40946580  0.86859960     0.08500
H431        H  0.86172130  0.44050165  0.90997869     0.07600
N432        N  0.00478448  0.42131919  0.88882316    -0.36200
N433        N  0.02176701  0.42397712  0.90152288    -0.28400
C434        C  0.04390154  0.41186008  0.89887826    -0.03700
C435        C  0.04128386  0.40207793  0.88377617     0.05000
C436        C  0.01628273  0.40851348  0.87779282     0.03000
H437        H  0.06033413  0.40981284  0.90735697     0.08200
H438        H  0.00547777  0.40213033  0.86649507     0.07000
N439        N  0.54029977  0.53985645  0.93343553    -0.27400
N440        N  0.53594195  0.50801527  0.93171792    -0.35300
C441        C  0.51688260  0.48720527  0.94333140     0.00900
C442        C  0.50859558  0.50663108  0.95293848     0.07000
C443        C  0.52379485  0.53996050  0.94631802    -0.06100
H444        H  0.50994984  0.45997986  0.94473475     0.07600
H445        H  0.52326505  0.56268353  0.95063771     0.08800
Cu446      Cu  0.55671967  0.49381523  0.91404130     0.44200
Cu447      Cu  0.56911432  0.58110336  0.91787142     0.42000
Cu448      Cu  0.60144379  0.55596816  0.88438882     0.43900
N449        N  0.58146111  0.48457935  0.89633381    -0.34800
N450        N  0.59840347  0.50752588  0.88535951    -0.29000
C451        C  0.61438508  0.49506401  0.87642421    -0.05100
C452        C  0.60640980  0.46241527  0.88195337     0.07100
C453        C  0.58597494  0.45688584  0.89468475     0.00900
H454        H  0.63192582  0.50945428  0.86710607     0.08500
H455        H  0.57671784  0.43525751  0.90262913     0.07600
N456        N  0.60507420  0.60447119  0.88707889    -0.36200
N457        N  0.59573915  0.61470236  0.89945454    -0.28400
C458        C  0.60541268  0.64898887  0.89781413    -0.03700
C459        C  0.62059634  0.66033916  0.88363690     0.05000
C460        C  0.61988903  0.63145384  0.87716764     0.03000
H461        H  0.60163011  0.66450273  0.90628817     0.08200
H462        H  0.63088636  0.63058609  0.86633020     0.07000
N463        N  0.47490045  0.01631123  0.93858720    -0.27400
N464        N  0.50696002  0.04511159  0.93842382    -0.35300
C465        C  0.52638958  0.04354065  0.94971397     0.00900
C466        C  0.50581179  0.01213061  0.95739764     0.07000
C467        C  0.47328304  0.99546135  0.95005061    -0.06100
H468        H  0.55367831  0.06366933  0.95201575     0.07600
H469        H  0.45020490  0.97001259  0.95279739     0.08800
Cu470      Cu  0.52397556  0.08491424  0.92262369     0.44200
Cu471      Cu  0.43545258  0.00695954  0.92278055     0.42000
Cu472      Cu  0.46521705  0.07171329  0.89211231     0.43900
N473        N  0.53650728  0.12144598  0.90566659    -0.34800
N474        N  0.51500357  0.11691288  0.89440883    -0.29000
C475        C  0.53027202  0.14623999  0.88578034    -0.05100
C476        C  0.56317373  0.17017140  0.89184910     0.07100
C477        C  0.56603556  0.15356502  0.90450437     0.00900
H478        H  0.51773982  0.15030530  0.87616943     0.08500
H479        H  0.58768886  0.16433602  0.91249161     0.07600
N480        N  0.41531870  0.02615250  0.89309579    -0.36200
N481        N  0.40342708  0.00357277  0.90453096    -0.28400
C482        C  0.36901134  0.97895839  0.90198433    -0.03700
C483        C  0.35932439  0.98603704  0.88816086     0.05000
C484        C  0.38929316  0.01607180  0.88288380     0.03000
H485        H  0.35235238  0.95741869  0.90956825     0.08200
H486        H  0.39164201  0.03038357  0.87262568     0.07000
C487        C  0.03218934  0.01817340  0.53885032     0.03000
C488        C  0.00445920  0.98264736  0.53911319    -0.13100
C489        C  0.96901922  0.97404700  0.53943687     0.00500
C490        C  0.96148993  0.00136504  0.53909002    -0.11700
C491        C  0.98907572  0.03699310  0.53856745     0.03000
C492        C  0.02436636  0.04515507  0.53820843    -0.11100
H493        H  0.01053775  0.96188006  0.54028633     0.08600
H494        H  0.93427734  0.99497357  0.54021832     0.06100
H495        H  0.04579313  0.07263805  0.53860964     0.06000
N496        N  0.88765536  0.22105004  0.60603030    -0.27400
N497        N  0.88584028  0.19015040  0.60588293    -0.35300
C498        C  0.86761215  0.17118282  0.61805692     0.00900
C499        C  0.85706939  0.19083366  0.62631586     0.07000
C500        C  0.87026314  0.22237597  0.61837437    -0.06100
H501        H  0.86159129  0.14457536  0.62045321     0.07600
H502        H  0.86685657  0.24434652  0.62119783     0.08800
Cu503      Cu  0.90592386  0.17386993  0.58863445     0.44200
Cu504      Cu  0.91217830  0.25850126  0.58864695     0.42000
Cu505      Cu  0.93490210  0.22599499  0.55468001     0.43900
N506        N  0.92655570  0.16171061  0.57018398    -0.34800
N507        N  0.93662139  0.18020449  0.55752180    -0.29000
C508        C  0.95020094  0.16608031  0.54810281    -0.05100
C509        C  0.94885446  0.13765020  0.55533570     0.07100
C510        C  0.93352640  0.13551345  0.56923759     0.00900
H511        H  0.96161356  0.17664979  0.53712844     0.08500
H512        H  0.92860778  0.11682011  0.57816831     0.07600
N513        N  0.93924747  0.27509409  0.55621754    -0.36200
N514        N  0.93363502  0.28803421  0.56874997    -0.28400
C515        C  0.94358469  0.32214089  0.56629570    -0.03700
C516        C  0.95510227  0.33063186  0.55146501     0.05000
C517        C  0.95192144  0.30018975  0.54542424     0.03000
H518        H  0.94272605  0.33956690  0.57470542     0.08200
H519        H  0.96016150  0.29711530  0.53427434     0.07000
N520        N  0.32397562  0.12690337  0.60315627    -0.27400
N521        N  0.29534558  0.12936579  0.60245283    -0.35300
C522        C  0.29459934  0.14813055  0.61431685     0.00900
C523        C  0.32428055  0.15832382  0.62302055     0.07000
C524        C  0.34239583  0.14440870  0.61561670    -0.06100
H525        H  0.27408454  0.15424815  0.61632842     0.07600
H526        H  0.36721643  0.14702545  0.61898954     0.08800
Cu527      Cu  0.25894051  0.10826767  0.58519243     0.44200
Cu528      Cu  0.33560115  0.09978239  0.58657383     0.42000
Cu529      Cu  0.27665308  0.06966959  0.55319541     0.43900
N530        N  0.22497321  0.08657254  0.56713512    -0.34800
N531        N  0.23120414  0.07271461  0.55511256    -0.29000
C532        C  0.20277108  0.05927558  0.54592765    -0.05100
C533        C  0.17769482  0.06511804  0.55260766     0.07100
C534        C  0.19263767  0.08228232  0.56602756     0.00900
H535        H  0.19982847  0.04477527  0.53560702     0.08500
H536        H  0.18037522  0.09000914  0.57462955     0.07600
N537        N  0.32037910  0.06387943  0.55562985    -0.36200
N538        N  0.34038167  0.07259002  0.56788362    -0.28400
C539        C  0.36354637  0.06142185  0.56607484    -0.03700
C540        C  0.35831347  0.04574990  0.55194568     0.05000
C541        C  0.33088106  0.04793265  0.54565758     0.03000
H542        H  0.38287027  0.06458505  0.57439603     0.08200
H543        H  0.31839370  0.03730288  0.53486364     0.07000
N544        N  0.79428490  0.68600330  0.61005443    -0.27400
N545        N  0.82517933  0.71609060  0.60906013    -0.35300
C546        C  0.84560501  0.71923487  0.62090754     0.00900
C547        C  0.82683866  0.68981636  0.62997836     0.07000
C548        C  0.79430882  0.66927762  0.62279375    -0.06100
H549        H  0.87219232  0.74143807  0.62276809     0.07600
H550        H  0.77250075  0.64383306  0.62645286     0.08800
Cu551      Cu  0.83877667  0.75193001  0.59174914     0.44200
Cu552      Cu  0.75469945  0.66932371  0.59329456     0.42000
Cu553      Cu  0.78207175  0.72554612  0.55940216     0.43900
N554        N  0.84783827  0.78492384  0.57372119    -0.34800
N555        N  0.82765237  0.77532146  0.56156057    -0.29000
C556        C  0.84042957  0.80321247  0.55211928    -0.05100
C557        C  0.86969326  0.83163063  0.55884751     0.07100
C558        C  0.87373586  0.81905558  0.57246444     0.00900
H559        H  0.82865169  0.80315213  0.54142294     0.08500
H560        H  0.89377888  0.83373575  0.58092275     0.07600
N561        N  0.73410586  0.67774058  0.56138803    -0.36200
N562        N  0.72288180  0.65844822  0.57386784    -0.28400
C563        C  0.68892156  0.63201539  0.57174569    -0.03700
C564        C  0.67879497  0.63436290  0.55717280     0.05000
C565        C  0.70811755  0.66364462  0.55098588     0.03000
H566        H  0.67261890  0.61275406  0.58023251     0.08200
H567        H  0.70973825  0.67515946  0.54002843     0.07000
C568        C  0.63200468  0.33852176  0.72045145     0.03000
C569        C  0.64451058  0.31516829  0.71865116    -0.13100
C570        C  0.68106304  0.32756257  0.71936604     0.00500
C571        C  0.70499152  0.36385387  0.72214396    -0.11700
C572        C  0.69283887  0.38761075  0.72305026     0.03000
C573        C  0.65637280  0.37470704  0.72272224    -0.11100
H574        H  0.62585671  0.28763542  0.71590602     0.08600
H575        H  0.73324390  0.37407617  0.72254244     0.06100
H576        H  0.64716240  0.39324488  0.72309110     0.06000
N577        N  0.33508570  0.21231360  0.65654422    -0.27400
N578        N  0.36453869  0.21124649  0.65696208    -0.35300
C579        C  0.36508568  0.19192581  0.64526819     0.00900
C580        C  0.33453390  0.18009886  0.63695208     0.07000
C581        C  0.31606277  0.19351504  0.64442421    -0.06100
H582        H  0.38632196  0.18699823  0.64298120     0.07600
H583        H  0.29067060  0.18985434  0.64128285     0.08800
Cu584      Cu  0.40298836  0.23596955  0.67333976     0.44200
Cu585      Cu  0.32283755  0.23932362  0.67293619     0.42000
Cu586      Cu  0.38286185  0.27209114  0.70560148     0.43900
N587        N  0.43818517  0.26140722  0.69079356    -0.34800
N588        N  0.43075993  0.27394977  0.70294349    -0.29000
C589        C  0.45957459  0.28960993  0.71190794    -0.05100
C590        C  0.48623984  0.28684772  0.70492639     0.07100
C591        C  0.47182828  0.26891360  0.69159062     0.00900
H592        H  0.46144731  0.30323297  0.72237190     0.08500
H593        H  0.48505798  0.26246665  0.68294585     0.07600
N594        N  0.33716469  0.27470148  0.70388351    -0.36200
N595        N  0.31669086  0.26525268  0.69176555    -0.28400
C596        C  0.29252988  0.27507696  0.69381422    -0.03700
C597        C  0.29756434  0.29051937  0.70799470     0.05000
C598        C  0.32603474  0.28978869  0.71401276     0.03000
H599        H  0.27298403  0.27159383  0.68554469     0.08200
H600        H  0.33905791  0.30128738  0.72462973     0.07000
N601        N  0.80243164  0.14849325  0.65991166    -0.27400
N602        N  0.80042037  0.17732095  0.65890746    -0.35300
C603        C  0.81972933  0.19680480  0.64703038     0.00900
C604        C  0.83465497  0.17947450  0.64006406     0.07000
C605        C  0.82311721  0.14886591  0.64851880    -0.06100
H606        H  0.82243100  0.22165773  0.64366682     0.07600
H607        H  0.82932785  0.12842388  0.64653975     0.08800
Cu608      Cu  0.77192696  0.18927357  0.67381289     0.44200
Cu609      Cu  0.77674997  0.11086735  0.67717976     0.42000
Cu610      Cu  0.73913142  0.13794244  0.70801068     0.43900
N611        N  0.74700637  0.20044114  0.69083966    -0.34800
N612        N  0.73642521  0.18309877  0.70375596    -0.29000
C613        C  0.72312710  0.19858657  0.71255218    -0.05100
C614        C  0.72474794  0.22661887  0.70462118     0.07100
C615        C  0.74032112  0.22686792  0.69094002     0.00900
H616        H  0.71344269  0.19016737  0.72391540     0.08500
H617        H  0.74635586  0.24492457  0.68161868     0.07600
N618        N  0.73868952  0.09025773  0.70766367    -0.36200
N619        N  0.75046381  0.07958608  0.69623129    -0.28400
C620        C  0.74233221  0.04606993  0.69894868    -0.03700
C621        C  0.72549161  0.03550468  0.71286539     0.05000
C622        C  0.72357035  0.06414371  0.71802500     0.03000
H623        H  0.74780068  0.03032341  0.69125861     0.08200
H624        H  0.71036490  0.06519041  0.72817958     0.07000
N625        N  0.87242192  0.68373122  0.66339959    -0.27400
N626        N  0.83957806  0.65729342  0.66574526    -0.35300
C627        C  0.81872826  0.65538605  0.65429993     0.00900
C628        C  0.83911688  0.68210746  0.64418186     0.07000
C629        C  0.87311003  0.69972090  0.65030973    -0.06100
H630        H  0.79067093  0.63597631  0.65347311     0.07600
H631        H  0.89658364  0.72228423  0.64554954     0.08800
Cu632      Cu  0.82412878  0.62444594  0.68426323     0.44200
Cu633      Cu  0.91373705  0.69531291  0.67865540     0.42000
Cu634      Cu  0.88688519  0.63653766  0.71238728     0.43900
N635        N  0.81268020  0.58894421  0.70152422    -0.34800
N636        N  0.83590385  0.59195826  0.71167846    -0.29000
C637        C  0.82158443  0.56151585  0.71963242    -0.05100
C638        C  0.78751029  0.53845895  0.71424954     0.07100
C639        C  0.78301484  0.55709180  0.70281800     0.00900
H640        H  0.83581321  0.55576381  0.72794318     0.08500
H641        H  0.76059878  0.54739980  0.69528080     0.07600
N642        N  0.93662215  0.68205783  0.70930417    -0.36200
N643        N  0.94721654  0.70180717  0.69692733    -0.28400
C644        C  0.98191250  0.72679390  0.69844488    -0.03700
C645        C  0.99323456  0.72317884  0.71254624     0.05000
C646        C  0.96385726  0.69461357  0.71908221     0.03000
H647        H  0.99770806  0.74630423  0.68995084     0.08200
H648        H  0.96274168  0.68282807  0.72991616     0.07000
C649        C  0.95431832  0.97890847  0.38934646     0.03000
C650        C  0.97702547  0.01570385  0.39100125    -0.13100
C651        C  0.01396173  0.03139773  0.38921657     0.00500
C652        C  0.02805411  0.00936990  0.38738375    -0.11700
C653        C  0.00575693  0.97252456  0.38645013     0.03000
C654        C  0.96887226  0.95734164  0.38729397    -0.11100
H655        H  0.96571284  0.03224946  0.39254494     0.08600
H656        H  0.05634157  0.02092045  0.38571549     0.06100
H657        H  0.95151164  0.92901750  0.38569488     0.06000
N658        N  0.12591855  0.79995027  0.32341495    -0.27400
N659        N  0.13265499  0.83282398  0.32447434    -0.35300
C660        C  0.15210397  0.85175898  0.31253226     0.00900
C661        C  0.15819866  0.83002165  0.30339279     0.07000
C662        C  0.14122728  0.79728000  0.31062011    -0.06100
H663        H  0.16116725  0.87942482  0.31068392     0.07600
H664        H  0.14017005  0.77335318  0.30687239     0.08800
Cu665      Cu  0.11526555  0.85131096  0.34186955     0.44200
Cu666      Cu  0.09645906  0.76105838  0.33990183     0.42000
Cu667      Cu  0.07411923  0.79497912  0.37359013     0.43900
N668        N  0.09300279  0.86423717  0.35938657    -0.34800
N669        N  0.07799274  0.84376897  0.37127763    -0.29000
C670        C  0.06294824  0.85783747  0.37984322    -0.05100
C671        C  0.06891617  0.88868283  0.37297402     0.07100
C672        C  0.08790882  0.89172633  0.35999819     0.00900
H673        H  0.04677757  0.84525602  0.38973575     0.08500
H674        H  0.09594149  0.91154587  0.35125141     0.07600
N675        N  0.06455000  0.74373362  0.37158154    -0.36200
N676        N  0.06998787  0.73038813  0.35912923    -0.28400
C677        C  0.05651502  0.69534640  0.36126227    -0.03700
C678        C  0.04280070  0.68661016  0.37581091     0.05000
C679        C  0.04852899  0.71795837  0.38200072     0.03000
H680        H  0.05680127  0.67755824  0.35288244     0.08200
H681        H  0.04011495  0.72145117  0.39304260     0.07000
N682        N  0.20776397  0.32425177  0.32597646    -0.27400
N683        N  0.17622054  0.29491647  0.32654683    -0.35300
C684        C  0.15693373  0.29313109  0.31451450     0.00900
C685        C  0.17709612  0.32283067  0.30577781     0.07000
C686        C  0.20931103  0.34209040  0.31334546    -0.06100
H687        H  0.12996055  0.27192064  0.31243442     0.07600
H688        H  0.23189829  0.36738489  0.31003752     0.08800
Cu689      Cu  0.15986179  0.25934540  0.34396039     0.44200
Cu690      Cu  0.24513893  0.33754171  0.34339431     0.42000
Cu691      Cu  0.20884803  0.28326763  0.37838499     0.43900
N692        N  0.14465170  0.22653189  0.36234461    -0.34800
N693        N  0.16139391  0.23506498  0.37540073    -0.29000
C694        C  0.14424359  0.20715228  0.38482683    -0.05100
C695        C  0.11567812  0.17962688  0.37713035     0.07100
C696        C  0.11691219  0.19328181  0.36295978     0.00900
H697        H  0.15226484  0.20695709  0.39631723     0.08500
H698        H  0.09941691  0.17975015  0.35355323     0.07600
N699        N  0.26010035  0.32729064  0.37615694    -0.36200
N700        N  0.27404142  0.34490551  0.36341483    -0.28400
C701        C  0.30905092  0.36780440  0.36560170    -0.03700
C702        C  0.31727143  0.36508654  0.38044741     0.05000
C703        C  0.28557797  0.33928462  0.38678318     0.03000
H704        H  0.32728246  0.38500830  0.35698551     0.08200
H705        H  0.28175818  0.32844216  0.39804451     0.07000
N706        N  0.65775307  0.85695373  0.33108375    -0.27400
N707        N  0.68233165  0.84876364  0.33329729    -0.35300
C708        C  0.68333223  0.83026987  0.32134742     0.00900
C709        C  0.65809333  0.82647409  0.31105774     0.07000
C710        C  0.64231163  0.84365963  0.31762344    -0.06100
H711        H  0.70159048  0.82090652  0.32013182     0.07600
H712        H  0.62151472  0.84676827  0.31286059     0.08800
Cu713      Cu  0.71522745  0.86567207  0.35194545     0.44200
Cu714      Cu  0.64771545  0.88697636  0.34654673     0.42000
Cu715      Cu  0.70729627  0.92218332  0.37928751     0.43900
N716        N  0.75211016  0.89302252  0.36869908    -0.34800
N717        N  0.75063456  0.91521149  0.37832701    -0.29000
C718        C  0.78160694  0.93266906  0.38590626    -0.05100
C719        C  0.80340864  0.92046246  0.38089763     0.07100
C720        C  0.78354621  0.89532908  0.37000813     0.00900
H721        H  0.78848174  0.95412979  0.39375872     0.08500
H722        H  0.79208315  0.88111590  0.36287417     0.07600
N723        N  0.66220053  0.92573864  0.37662502    -0.36200
N724        N  0.64189446  0.91497047  0.36444233    -0.28400
C725        C  0.61728254  0.92431775  0.36584130    -0.03700
C726        C  0.62179034  0.94090376  0.37967695     0.05000
C727        C  0.65039156  0.94123941  0.38621732     0.03000
H728        H  0.59749307  0.91932171  0.35742928     0.08200
H729        H  0.66271054  0.95327387  0.39687985     0.07000
C730        C  0.36284321  0.67791281  0.20994022     0.03000
C731        C  0.34031248  0.64108357  0.20969133    -0.13100
C732        C  0.30397837  0.62607415  0.20725410     0.00500
C733        C  0.29035588  0.64786702  0.20423907    -0.11700
C734        C  0.31216687  0.68500711  0.20531685     0.03000
C735        C  0.34866960  0.69981701  0.20816247    -0.11100
H736        H  0.35074408  0.62414680  0.21221502     0.08600
H737        H  0.26209417  0.63564794  0.20238457     0.06100
H738        H  0.36578960  0.72809362  0.20986700     0.06000
N739        N  0.21064151  0.87019246  0.26904270    -0.27400
N740        N  0.20485867  0.83766917  0.26816731    -0.35300
C741        C  0.18555599  0.81863118  0.28012311     0.00900
C742        C  0.17863378  0.84003020  0.28910202     0.07000
C743        C  0.19493019  0.87261773  0.28174978    -0.06100
H744        H  0.17710255  0.79114433  0.28207093     0.07600
H745        H  0.19519064  0.89624621  0.28533868     0.08800
Cu746      Cu  0.22259673  0.82009207  0.25063933     0.44200
Cu747      Cu  0.23939521  0.90858443  0.25229720     0.42000
Cu748      Cu  0.25872704  0.87395831  0.21765520     0.43900
N749        N  0.23962744  0.80492114  0.23202558    -0.34800
N750        N  0.25205703  0.82380170  0.21956000    -0.29000
C751        C  0.26207752  0.80668691  0.20997945    -0.05100
C752        C  0.25536061  0.77541058  0.21678619     0.07100
C753        C  0.24161909  0.77570199  0.23084298     0.00900
H754        H  0.27457753  0.81692743  0.19913313     0.08500
H755        H  0.23533874  0.75714445  0.23996886     0.07600
N756        N  0.27056135  0.92593400  0.22039588    -0.36200
N757        N  0.26596592  0.93922058  0.23307180    -0.28400
C758        C  0.28021370  0.97445620  0.23121012    -0.03700
C759        C  0.29355139  0.98345365  0.21661922     0.05000
C760        C  0.28686025  0.95203249  0.21012136     0.03000
H761        H  0.28055906  0.99218481  0.23978865     0.08200
H762        H  0.29456665  0.94861353  0.19891409     0.07000
N763        N  0.65149422  0.78103118  0.27525976    -0.27400
N764        N  0.62659239  0.78899033  0.27361211    -0.35300
C765        C  0.62516399  0.80596635  0.28598551     0.00900
C766        C  0.65040957  0.80910078  0.29606846     0.07000
C767        C  0.66670317  0.79298107  0.28891924    -0.06100
H768        H  0.60691186  0.81525111  0.28750950     0.07600
H769        H  0.68810373  0.79032673  0.29328849     0.08800
Cu770      Cu  0.59442689  0.77545507  0.25496468     0.44200
Cu771      Cu  0.66282007  0.75477459  0.25816038     0.42000
Cu772      Cu  0.60753090  0.73143708  0.22375146     0.43900
N773        N  0.55913569  0.75331913  0.23740131    -0.34800
N774        N  0.56299287  0.73631839  0.22593311    -0.29000
C775        C  0.53333913  0.72189755  0.21745663    -0.05100
C776        C  0.50996673  0.73058452  0.22392828     0.07100
C777        C  0.52732318  0.75036707  0.23657045     0.00900
H778        H  0.52848514  0.70495460  0.20776916     0.08500
H779        H  0.51702872  0.76077413  0.24492024     0.07600
N780        N  0.65197221  0.72638345  0.22578409    -0.36200
N781        N  0.67043294  0.73252584  0.23838117    -0.28400
C782        C  0.69447938  0.72265168  0.23616411    -0.03700
C783        C  0.69168981  0.71069639  0.22141739     0.05000
C784        C  0.66448251  0.71345737  0.21520084     0.03000
H785        H  0.71250869  0.72378368  0.24470269     0.08200
H786        H  0.65323940  0.70480457  0.20406028     0.07000
N787        N  0.13414303  0.33057373  0.27190007    -0.27400
N788        N  0.16577819  0.35976821  0.27100073    -0.35300
C789        C  0.18567289  0.36155180  0.28282317     0.00900
C790        C  0.16581200  0.33197302  0.29168766     0.07000
C791        C  0.13320707  0.31283572  0.28444192    -0.06100
H792        H  0.21271272  0.38279277  0.28474383     0.07600
H793        H  0.11056794  0.28782192  0.28798835     0.08800
Cu794      Cu  0.18097519  0.39569787  0.25365866     0.44200
Cu795      Cu  0.09472900  0.31697589  0.25546787     0.42000
Cu796      Cu  0.12328372  0.37447945  0.22184783     0.43900
N797        N  0.19173925  0.42961510  0.23584160    -0.34800
N798        N  0.17073017  0.42232932  0.22408703    -0.29000
C799        C  0.18406691  0.45129307  0.21526524    -0.05100
C800        C  0.21519328  0.47788253  0.22176823     0.07100
C801        C  0.21901800  0.46309777  0.23481708     0.00900
H802        H  0.17107443  0.45335366  0.20532858     0.08500
H803        H  0.23949559  0.47612425  0.24327300     0.07600
N804        N  0.07406788  0.32850963  0.22413410    -0.36200
N805        N  0.06263690  0.30903662  0.23655759    -0.28400
C806        C  0.02803123  0.28418253  0.23475472    -0.03700
C807        C  0.01768341  0.28772248  0.22043685     0.05000
C808        C  0.04748948  0.31603900  0.21404816     0.03000
H809        H  0.01153318  0.26513654  0.24327289     0.08200
H810        H  0.04921028  0.32800036  0.20319091     0.07000
C811        C  0.69471161  0.34600277  0.37307340     0.03000
C812        C  0.67987125  0.30923270  0.37125371    -0.13100
C813        C  0.64315517  0.28558165  0.37254732     0.00500
C814        C  0.62065521  0.29896154  0.37474478    -0.11700
C815        C  0.63485113  0.33558271  0.37640432     0.03000
C816        C  0.67178387  0.35876229  0.37584799    -0.11100
H817        H  0.69696088  0.29862492  0.36940893     0.08600
H818        H  0.59228943  0.28082920  0.37582954     0.06100
H819        H  0.68259920  0.38663326  0.37820047     0.06000
N820        N  0.98442272  0.54276909  0.43741855    -0.27400
N821        N  0.95810737  0.50942033  0.43654294    -0.35300
C822        C  0.95850444  0.49151620  0.44872754     0.00900
C823        C  0.98646939  0.51459405  0.45782897     0.07000
C824        C  0.00234243  0.54694723  0.45033000    -0.06100
H825        H  0.93999542  0.46361070  0.45069724     0.07600
H826        H  0.02556981  0.57150728  0.45385909     0.08800
Cu827      Cu  0.92340929  0.48961016  0.41861170     0.44200
Cu828      Cu  0.99484508  0.57949359  0.42012434     0.42000
Cu829      Cu  0.94244279  0.54247801  0.38509857     0.43900
N830        N  0.89030195  0.47378193  0.40013548    -0.34800
N831        N  0.89695738  0.49236732  0.38760752    -0.29000
C832        C  0.86905154  0.47469489  0.37822848    -0.05100
C833        C  0.84383696  0.44333195  0.38519562     0.07100
C834        C  0.85823811  0.44420077  0.39915862     0.00900
H835        H  0.86690161  0.48437172  0.36732067     0.08500
H836        H  0.84575571  0.42551559  0.40830545     0.07600
N837        N  0.98542802  0.59430155  0.38733482    -0.36200
N838        N  0.00248368  0.60832586  0.40015585    -0.28400
C839        C  0.02573003  0.64319633  0.39795381    -0.03700
C840        C  0.02386364  0.65127967  0.38300620     0.05000
C841        C  0.99812899  0.61964980  0.37661856     0.03000
H842        H  0.04287373  0.66134621  0.40658770     0.08200
H843        H  0.98815120  0.61570481  0.36519843     0.07000
N844        N  0.46381984  0.45374500  0.44157701    -0.27400
N845        N  0.49610859  0.45872317  0.44091612    -0.35300
C846        C  0.51401489  0.47538738  0.45352720     0.00900
C847        C  0.49208368  0.48129330  0.46268344     0.07000
C848        C  0.46042111  0.46722611  0.45475701    -0.06100
H849        H  0.54102543  0.48255622  0.45585362     0.07600
H850        H  0.43671813  0.46694322  0.45828404     0.08800
Cu851      Cu  0.51462840  0.44243461  0.42303444     0.44200
Cu852      Cu  0.42645648  0.42904677  0.42414508     0.42000
Cu853      Cu  0.45981896  0.40818520  0.38999005     0.43900
N854        N  0.52748617  0.42231148  0.40459687    -0.34800
N855        N  0.50794932  0.41019423  0.39226494    -0.29000
C856        C  0.52204003  0.39606341  0.38311623    -0.05100
C857        C  0.55173445  0.39945732  0.39010709     0.07100
C858        C  0.55420508  0.41603281  0.40371020     0.00900
H859        H  0.51010637  0.38204036  0.37271314     0.08500
H860        H  0.57291436  0.42134932  0.41268411     0.07600
N861        N  0.40926145  0.40102126  0.39189323    -0.36200
N862        N  0.39623340  0.40631102  0.40448469    -0.28400
C863        C  0.36160693  0.39488390  0.40229225    -0.03700
C864        C  0.35272867  0.38262233  0.38756402     0.05000
C865        C  0.38361964  0.38704058  0.38132672     0.03000
H866        H  0.34410664  0.39528506  0.41080709     0.08200
H867        H  0.38673775  0.37891288  0.37016306     0.07000
N868        N  0.52487799  0.99681944  0.43618355    -0.27400
N869        N  0.51835238  0.02269889  0.43448724    -0.35300
C870        C  0.50041099  0.02392001  0.44658708     0.00900
C871        C  0.49507809  0.99737648  0.45642405     0.07000
C872        C  0.51092630  0.98066208  0.44947938    -0.06100
H873        H  0.49170804  0.04264664  0.44803609     0.07600
H874        H  0.51214140  0.95835897  0.45375010     0.08800
Cu875      Cu  0.53407876  0.05523495  0.41582988     0.44200
Cu876      Cu  0.55218307  0.98511608  0.41991181     0.42000
Cu877      Cu  0.57297955  0.03525346  0.38440697     0.43900
N878        N  0.55606458  0.08801140  0.39739050    -0.34800
N879        N  0.57039890  0.08112471  0.38571391    -0.29000
C880        C  0.58647312  0.11003635  0.37678280    -0.05100
C881        C  0.58196552  0.13613395  0.38326330     0.07100
C882        C  0.56260461  0.12122450  0.39627274     0.00900
H883        H  0.60264896  0.11286222  0.36703477     0.08500
H884        H  0.55605708  0.13444910  0.40487527     0.07600
N885        N  0.58162649  0.99359118  0.38801326    -0.36200
N886        N  0.57668903  0.97731733  0.40113631    -0.28400
C887        C  0.58969450  0.95557953  0.40012711    -0.03700
C888        C  0.60257138  0.95766312  0.38561764     0.05000
C889        C  0.59690506  0.98187376  0.37825306     0.03000
H890        H  0.58993663  0.93957895  0.40929728     0.08200
H891        H  0.60516535  0.99179246  0.36689509     0.07000
C892        C  0.29840612  0.64945956  0.55428040     0.03000
C893        C  0.31535761  0.68611980  0.55656260    -0.13100
C894        C  0.35224913  0.70674680  0.55873193     0.00500
C895        C  0.37195199  0.68972146  0.55863967    -0.11700
C896        C  0.35539028  0.65325384  0.55563358     0.03000
C897        C  0.31850181  0.63311534  0.55365405    -0.11100
H898        H  0.29988329  0.69873558  0.55568428     0.08600
H899        H  0.40050052  0.70509620  0.56000318     0.06100
H900        H  0.30564555  0.60505307  0.55111432     0.06000
N901        N  0.44711444  0.98905976  0.49158980    -0.27400
N902        N  0.45146113  0.96164209  0.49254740    -0.35300
C903        C  0.46896525  0.96045547  0.48030308     0.00900
C904        C  0.47611225  0.98849357  0.47104214     0.07000
C905        C  0.46185584  0.00615905  0.47851988    -0.06100
H906        H  0.47611255  0.94067608  0.47836425     0.07600
H907        H  0.46248938  0.02983533  0.47481499     0.08800
Cu908      Cu  0.43463050  0.92781214  0.51068179     0.44200
Cu909      Cu  0.42215166  0.00107863  0.50889889     0.42000
Cu910      Cu  0.40627844  0.95073363  0.54464943     0.43900
N911        N  0.42034845  0.89769874  0.52996303    -0.34800
N912        N  0.41092092  0.90596482  0.54278725    -0.29000
C913        C  0.40291157  0.87995275  0.55286800    -0.05100
C914        C  0.40791785  0.85434994  0.54600148     0.07100
C915        C  0.41835374  0.86649351  0.53140633     0.00900
H916        H  0.39320900  0.87923599  0.56418970     0.08500
H917        H  0.42266106  0.85298704  0.52218202     0.07600
N918        N  0.39654974  0.99205044  0.54166869    -0.36200
N919        N  0.39988769  0.00829916  0.52865617    -0.28400
C920        C  0.38721215  0.03017747  0.53040119    -0.03700
C921        C  0.37624609  0.02831451  0.54524183     0.05000
C922        C  0.38263688  0.00398143  0.55204990     0.03000
H923        H  0.38604387  0.04628359  0.52150887     0.08200
H924        H  0.37597847  0.99429974  0.56351697     0.07000
N925        N  0.52934809  0.52859732  0.49835006    -0.27400
N926        N  0.49612763  0.52096348  0.49943374    -0.35300
C927        C  0.47804871  0.50302083  0.48706710     0.00900
C928        C  0.50070883  0.49885941  0.47764226     0.07000
C929        C  0.53305662  0.51532222  0.48515575    -0.06100
H930        H  0.45045544  0.49406329  0.48502910     0.07600
H931        H  0.55757892  0.51788228  0.48122354     0.08800
Cu932      Cu  0.47641417  0.53681261  0.51702166     0.44200
Cu933      Cu  0.56800228  0.55781091  0.51493096     0.42000
Cu934      Cu  0.53584053  0.58690196  0.54682084     0.43900
N935        N  0.46413260  0.56220940  0.53346513    -0.34800
N936        N  0.48627901  0.58151054  0.54431873    -0.29000
C937        C  0.47263614  0.59838858  0.55186827    -0.05100
C938        C  0.44007351  0.58892526  0.54555166     0.07100
C939        C  0.43578533  0.56603046  0.53385937     0.00900
H940        H  0.48645732  0.61778595  0.56067339     0.08500
H941        H  0.41441925  0.55433788  0.52573379     0.07600
N942        N  0.58638578  0.59401616  0.54570752    -0.36200
N943        N  0.59910834  0.58568868  0.53384206    -0.28400
C944        C  0.63388273  0.59799787  0.53622328    -0.03700
C945        C  0.64306352  0.61388007  0.55038066     0.05000
C946        C  0.61229180  0.61082901  0.55602066     0.03000
H947        H  0.65131225  0.59589457  0.52819433     0.08200
H948        H  0.60944264  0.62184704  0.56650104     0.07000
N949        N  0.00136558  0.47729596  0.49196159    -0.27400
N950        N  0.02701254  0.51094017  0.49307292    -0.35300
C951        C  0.02551655  0.52914931  0.48124052     0.00900
C952        C  0.99755979  0.50605558  0.47214741     0.07000
C953        C  0.98276631  0.47335098  0.47928508    -0.06100
H954        H  0.04361738  0.55718810  0.47939230     0.07600
H955        H  0.96019661  0.44852921  0.47552998     0.08800
Cu956      Cu  0.06356960  0.53115685  0.51041339     0.44200
Cu957      Cu  0.99308193  0.43891216  0.50816966     0.42000
Cu958      Cu  0.04784651  0.47520169  0.54212887     0.43900
N959        N  0.09897012  0.54523038  0.52805296    -0.34800
N960        N  0.09313726  0.52483767  0.53991211    -0.29000
C961        C  0.12262932  0.53936907  0.54842741    -0.05100
C962        C  0.14824034  0.57048756  0.54158109     0.07100
C963        C  0.13226030  0.57322743  0.52866635     0.00900
H964        H  0.12608078  0.52679397  0.55818962     0.08500
H965        H  0.14461821  0.59300845  0.51988866     0.07600
N966        N  0.00671743  0.42307642  0.53996813    -0.36200
N967        N  0.98859019  0.40891283  0.52739530    -0.28400
C968        C  0.96712122  0.37366514  0.52952745    -0.03700
C969        C  0.97145565  0.36570329  0.54420784     0.05000
C970        C  0.99665517  0.39762920  0.55046308     0.03000
H971        H  0.94948247  0.35524734  0.52107954     0.08200
H972        H  0.00807516  0.40183758  0.56161861     0.07000
C973        C  0.39884712  0.81900099  0.55184459    -0.06200
C974        C  0.37043971  0.80114072  0.56204006    -0.17400
C975        C  0.35687660  0.76545247  0.56575311     0.11000
C976        C  0.37053793  0.74626674  0.55844773    -0.06200
C977        C  0.40065429  0.76500083  0.54918810    -0.17400
C978        C  0.41570237  0.80113666  0.54634350     0.11000
S979        S  0.32260449  0.74634609  0.58001725    -0.32400
S980        S  0.45701320  0.82274611  0.53599092    -0.32400
H981        H  0.47049860  0.85569644  0.54326761     0.29000
H982        H  0.33057720  0.72090998  0.58487598     0.29000
H983        H  0.35801159  0.81468600  0.56688111     0.19600
H984        H  0.41227427  0.75131838  0.54373075     0.19600
C985        C  0.37712830  0.63700693  0.55297834    -0.06200
C986        C  0.39228779  0.62995828  0.56532915    -0.17400
C987        C  0.41192441  0.61331474  0.56337957     0.11000
C988        C  0.41759507  0.60440059  0.54866395    -0.06200
C989        C  0.40219845  0.61147300  0.53634491    -0.17400
C990        C  0.38238135  0.62779601  0.53831281     0.11000
S991        S  0.42700144  0.60232894  0.58020320    -0.32400
S992        S  0.36512670  0.63676132  0.52158844    -0.32400
H993        H  0.36770424  0.66806752  0.52696141     0.29000
H994        H  0.42126658  0.56983051  0.57463233     0.29000
H995        H  0.38795078  0.63659840  0.57661953     0.19600
H996        H  0.40646087  0.60520817  0.52497848     0.19600
C997        C  0.26009839  0.62917076  0.55094816    -0.06200
C998        C  0.23579767  0.62097527  0.56280064    -0.17400
C999        C  0.19917898  0.60269576  0.56009311     0.11000
C1000       C  0.18648094  0.59170616  0.54523384    -0.06200
C1001       C  0.21098201  0.60025519  0.53341398    -0.17400
C1002       C  0.24748503  0.61912396  0.53607163     0.11000
S1003       S  0.17033676  0.59570785  0.57591561    -0.32400
S1004       S  0.27651957  0.62971834  0.51997283    -0.32400
H1005       H  0.30390516  0.66252881  0.52543492     0.29000
H1006       H  0.14524772  0.59926628  0.56759205     0.29000
H1007       H  0.24548349  0.62937019  0.57419464     0.19600
H1008       H  0.20164073  0.59199932  0.52197428     0.19600
C1009       C  0.73409286  0.37021292  0.37401213    -0.06200
C1010       C  0.75372582  0.35867569  0.38205186    -0.17400
C1011       C  0.79010643  0.38084080  0.38448595     0.11000
C1012       C  0.80740839  0.41678669  0.37999658    -0.06200
C1013       C  0.78842326  0.42799816  0.37129662    -0.17400
C1014       C  0.75246988  0.40490168  0.36783985     0.11000
S1015       S  0.81291820  0.36079745  0.39271707    -0.32400
S1016       S  0.73226218  0.42112054  0.35509056    -0.32400
H1017       H  0.70828814  0.38778839  0.34877751     0.29000
H1018       H  0.84479981  0.38202203  0.38474552     0.29000
H1019       H  0.74070039  0.33210474  0.38664766     0.19600
H1020       H  0.80149300  0.45507682  0.36727540     0.19600
C1021       C  0.60059815  0.17410753  0.37940718    -0.06200
C1022       C  0.58855878  0.18518251  0.36719732    -0.17400
C1023       C  0.60264099  0.22135562  0.36429213     0.11000
C1024       C  0.62919538  0.24702650  0.37387028    -0.06200
C1025       C  0.64181591  0.23574894  0.38580804    -0.17400
C1026       C  0.62800948  0.19977357  0.38862816     0.11000
S1027       S  0.58552310  0.23296106  0.34831409    -0.32400
S1028       S  0.64593175  0.18838798  0.40441097    -0.32400
H1029       H  0.64130513  0.15696555  0.39808050     0.29000
H1030       H  0.61652823  0.26579064  0.34546029     0.29000
H1031       H  0.56749809  0.16554452  0.36010644     0.19600
H1032       H  0.66213207  0.25520761  0.39323107     0.19600
C1033       C  0.61155772  0.34994849  0.37958116    -0.06200
C1034       C  0.61179304  0.37462024  0.36950775    -0.17400
C1035       C  0.59186216  0.39064281  0.37247652     0.11000
C1036       C  0.57162343  0.38208294  0.38585960    -0.06200
C1037       C  0.57128842  0.35736518  0.39588434    -0.17400
C1038       C  0.59087197  0.34108489  0.39287826     0.11000
S1039       S  0.59391629  0.42335316  0.35962515    -0.32400
S1040       S  0.59083588  0.31063298  0.40649194    -0.32400
H1041       H  0.56704578  0.31171961  0.41683045     0.29000
H1042       H  0.61718633  0.42191471  0.34909678     0.29000
H1043       H  0.62798561  0.38155218  0.35940051     0.19600
H1044       H  0.55578556  0.35108125  0.40617334     0.19600
C1045       C  0.26612840  0.75021478  0.21159161    -0.06200
C1046       C  0.29692083  0.76279946  0.20272878    -0.17400
C1047       C  0.31115022  0.74142994  0.19948792     0.11000
C1048       C  0.29561891  0.70724131  0.20600506    -0.06200
C1049       C  0.26384307  0.69426933  0.21424373    -0.17400
C1050       C  0.24819020  0.71452887  0.21644431     0.11000
S1051       S  0.34839997  0.75917654  0.18666411    -0.32400
S1052       S  0.20457782  0.69241242  0.22493075    -0.32400
H1053       H  0.19275500  0.71188987  0.21694837     0.29000
H1054       H  0.34016342  0.72612130  0.18072454     0.29000
H1055       H  0.31045621  0.78968683  0.19846722     0.19600
H1056       H  0.25093617  0.66806713  0.21920744     0.19600
C1057       C  0.40059278  0.69312586  0.21367411    -0.06200
C1058       C  0.42540868  0.70374616  0.20188452    -0.17400
C1059       C  0.46130157  0.71643606  0.20480032     0.11000
C1060       C  0.47261670  0.71786173  0.21984855    -0.06200
C1061       C  0.44752027  0.70707922  0.23159390    -0.17400
C1062       C  0.41186052  0.69496587  0.22870002     0.11000
S1063       S  0.49128169  0.73158048  0.18890718    -0.32400
S1064       S  0.38197025  0.68134412  0.24465361    -0.32400
H1065       H  0.35825003  0.69017286  0.23846595     0.29000
H1066       H  0.51930888  0.76041519  0.19658128     0.29000
H1067       H  0.41674069  0.70224472  0.19032757     0.19600
H1068       H  0.45566314  0.70777241  0.24317797     0.19600
C1069       C  0.27959186  0.58843418  0.21075554    -0.06200
C1070       C  0.26706002  0.56333128  0.19907910    -0.17400
C1071       C  0.24624426  0.52699262  0.20223101     0.11000
C1072       C  0.23708121  0.51560568  0.21737913    -0.06200
C1073       C  0.24933983  0.54106169  0.22896146    -0.17400
C1074       C  0.27026234  0.57715247  0.22584361     0.11000
S1075       S  0.23448984  0.49675335  0.18656736    -0.32400
S1076       S  0.28492579  0.60728179  0.24172504    -0.32400
H1077       H  0.28546640  0.63562311  0.23430724     0.29000
H1078       H  0.23909692  0.47183439  0.19448701     0.29000
H1079       H  0.27459433  0.57204120  0.18751223     0.19600
H1080       H  0.24227971  0.53284996  0.24060473     0.19600
C1081       C  0.05281452  0.91002036  0.37686071    -0.06200
C1082       C  0.03669896  0.91834874  0.36529203    -0.17400
C1083       C  0.02134822  0.93871414  0.36812520     0.11000
C1084       C  0.02127652  0.95056256  0.38294546    -0.06200
C1085       C  0.03764382  0.94262152  0.39453684    -0.17400
C1086       C  0.05357121  0.92256243  0.39164144     0.11000
S1087       S  0.00288955  0.94914479  0.35227624    -0.32400
S1088       S  0.07655725  0.91499794  0.40661550    -0.32400
H1089       H  0.06967040  0.93293709  0.41804438     0.29000
H1090       H  0.01264457  0.98335684  0.35720521     0.29000
H1091       H  0.03617783  0.90902454  0.35389437     0.19600
H1092       H  0.03819414  0.95251621  0.40580988     0.19600
C1093       C  0.03793423  0.07051838  0.38762493    -0.06200
C1094       C  0.07109803  0.08726679  0.39487434    -0.17400
C1095       C  0.09714478  0.12256718  0.39176109     0.11000
C1096       C  0.08917733  0.14293064  0.38205384    -0.06200
C1097       C  0.05518717  0.12675446  0.37561764    -0.17400
C1098       C  0.03029644  0.09083248  0.37772967     0.11000
S1099       S  0.14077986  0.13821315  0.39919931    -0.32400
S1100       S  0.99150245  0.07202946  0.36591604    -0.32400
H1101       H  0.99581922  0.04414107  0.36097741     0.29000
H1102       H  0.15824426  0.15320298  0.38545460     0.29000
H1103       H  0.07762989  0.07204244  0.40232458     0.19600
H1104       H  0.04849016  0.14171163  0.36809208     0.19600
C1105       C  0.84182493  0.93525794  0.38385159    -0.06200
C1106       C  0.86311062  0.93702989  0.37161665    -0.17400
C1107       C  0.89948540  0.95112212  0.37315368     0.11000
C1108       C  0.91573828  0.96391914  0.38733866    -0.06200
C1109       C  0.89481424  0.96258000  0.39964253    -0.17400
C1110       C  0.85801503  0.94788490  0.39812763     0.11000
S1111       S  0.92345628  0.95249866  0.35634099    -0.32400
S1112       S  0.83324301  0.94426574  0.41497346    -0.32400
H1113       H  0.80337666  0.91134931  0.41108857     0.29000
H1114       H  0.95527859  0.98350435  0.36009839     0.29000
H1115       H  0.85153917  0.92814080  0.36052858     0.19600
H1116       H  0.90708025  0.97217966  0.41057935     0.19600
C1117       C  0.71785494  0.42589758  0.72088667    -0.06200
C1118       C  0.73629091  0.44740032  0.73330240    -0.17400
C1119       C  0.75859709  0.48430088  0.73171041     0.11000
C1120       C  0.76365821  0.49992962  0.71726234    -0.06200
C1121       C  0.74527968  0.47801090  0.70492332    -0.17400
C1122       C  0.72232821  0.44158421  0.70653263     0.11000
S1123       S  0.77776768  0.50988335  0.74863996    -0.32400
S1124       S  0.69948923  0.41748986  0.68961246    -0.32400
H1125       H  0.68478043  0.38268492  0.69473766     0.29000
H1126       H  0.77459366  0.53866135  0.74410178     0.29000
H1127       H  0.73232812  0.43551970  0.74437549     0.19600
H1128       H  0.74894840  0.48924116  0.69373638     0.19600
C1129       C  0.69386283  0.30275159  0.71609088    -0.06200
C1130       C  0.67622480  0.26900772  0.72281613    -0.17400
C1131       C  0.68490552  0.24338903  0.71917197     0.11000
C1132       C  0.71376401  0.25215658  0.70931328    -0.06200
C1133       C  0.73210983  0.28634919  0.70300527    -0.17400
C1134       C  0.72176467  0.31097968  0.70576482     0.11000
S1135       S  0.65582478  0.19943946  0.72643225    -0.32400
S1136       S  0.74310138  0.35076000  0.69452101    -0.32400
H1137       H  0.71107958  0.34881794  0.69101773     0.29000
H1138       H  0.65394495  0.18245350  0.71267343     0.29000
H1139       H  0.65439341  0.26196625  0.73054483     0.19600
H1140       H  0.75407842  0.29374825  0.69533012     0.19600
C1141       C  0.59422876  0.32628511  0.71761502    -0.06200
C1142       C  0.58644005  0.34247928  0.70587141    -0.17400
C1143       C  0.55144665  0.33103541  0.70193933     0.11000
C1144       C  0.52330206  0.30243040  0.70978326    -0.06200
C1145       C  0.53086150  0.28657198  0.72170721    -0.17400
C1146       C  0.56598231  0.29823481  0.72574799     0.11000
S1147       S  0.54450329  0.35370049  0.68666387    -0.32400
S1148       S  0.57288382  0.27622503  0.74130123    -0.32400
H1149       H  0.60508054  0.30574399  0.74610816     0.29000
H1150       H  0.51235706  0.34900392  0.69218857     0.29000
H1151       H  0.60787280  0.36389572  0.69951596     0.19600
H1152       H  0.50926351  0.26453453  0.72772275     0.19600
C1153       C  0.98144044  0.06553393  0.54136474    -0.06200
C1154       C  0.99608858  0.08647400  0.55433681    -0.17400
C1155       C  0.98739377  0.11154153  0.55864499     0.11000
C1156       C  0.96284174  0.11550472  0.55000160    -0.06200
C1157       C  0.94923097  0.09570661  0.53668148    -0.17400
C1158       C  0.95833817  0.07082753  0.53224078     0.11000
S1159       S  0.00865612  0.13767796  0.57527104    -0.32400
S1160       S  0.93940037  0.04656194  0.51497836    -0.32400
H1161       H  0.96712445  0.04060381  0.51158690     0.29000
H1162       H  0.00969781  0.16839683  0.57019379     0.29000
H1163       H  0.01393942  0.08272943  0.56138262     0.19600
H1164       H  0.93059886  0.09889343  0.52994426     0.19600
C1165       C  0.06901607  0.02760578  0.54184793    -0.06200
C1166       C  0.09555777  0.04748524  0.53112168    -0.17400
C1167       C  0.13130449  0.05965873  0.53412306     0.11000
C1168       C  0.14064056  0.05128664  0.54806161    -0.06200
C1169       C  0.11396448  0.03075310  0.55859759    -0.17400
C1170       C  0.07849028  0.01926625  0.55576631     0.11000
S1171       S  0.16367108  0.08720349  0.52010406    -0.32400
S1172       S  0.04702510  0.99579410  0.57074886    -0.32400
H1173       H  0.02686337  0.01180391  0.56848780     0.29000
H1174       H  0.19042083  0.10912635  0.53038526     0.29000
H1175       H  0.08846260  0.05439712  0.52052914     0.19600
H1176       H  0.12099188  0.02445435  0.56935793     0.19600
C1177       C  0.94057259  0.93732633  0.54300595    -0.06200
C1178       C  0.92132110  0.93176532  0.55644041    -0.17400
C1179       C  0.89697383  0.89761367  0.56152399     0.11000
C1180       C  0.89170663  0.86803908  0.55307509    -0.06200
C1181       C  0.90999694  0.87344194  0.53939338    -0.17400
C1182       C  0.93441084  0.90772046  0.53427693     0.11000
S1183       S  0.87370805  0.89363936  0.57892759    -0.32400
S1184       S  0.95717458  0.91180257  0.51672006    -0.32400
H1185       H  0.96260016  0.94512884  0.51278288     0.29000
H1186       H  0.84220678  0.86230726  0.57488737     0.29000
H1187       H  0.92602858  0.95425989  0.56327454     0.19600
H1188       H  0.90603052  0.85078984  0.53288402     0.19600
C1189       C  0.75575796  0.38429908  0.87243831    -0.06200
C1190       C  0.77409146  0.41562596  0.88101165    -0.17400
C1191       C  0.80987687  0.43067077  0.88453329     0.11000
C1192       C  0.82761731  0.41275230  0.88048182    -0.06200
C1193       C  0.81008121  0.38257409  0.87119840    -0.17400
C1194       C  0.77481929  0.36884325  0.86676261     0.11000
S1195       S  0.83143495  0.47346649  0.89366249    -0.32400
S1196       S  0.75619489  0.33226468  0.85360172    -0.32400
H1197       H  0.73241318  0.34054828  0.84697672     0.29000
H1198       H  0.86452907  0.48578863  0.88663315     0.29000
H1199       H  0.76042210  0.42844852  0.88527771     0.19600
H1200       H  0.82368001  0.36919072  0.86753931     0.19600
C1201       C  0.58816922  0.20721147  0.88719713    -0.06200
C1202       C  0.60365716  0.23316655  0.89855004    -0.17400
C1203       C  0.62671664  0.26884930  0.89502227     0.11000
C1204       C  0.63432396  0.27909526  0.87974889    -0.06200
C1205       C  0.61913728  0.25336599  0.86836601    -0.17400
C1206       C  0.59652440  0.21752108  0.87190620     0.11000
S1207       S  0.64430345  0.29997600  0.91052505    -0.32400
S1208       S  0.58064123  0.18639228  0.85643913    -0.32400
H1209       H  0.58240317  0.15969540  0.86430494     0.29000
H1210       H  0.67656474  0.32466981  0.90366828     0.29000
H1211       H  0.59734614  0.22570445  0.91030474     0.19600
H1212       H  0.62527300  0.26126287  0.85664077     0.19600
C1213       C  0.65156775  0.39836251  0.87335448    -0.06200
C1214       C  0.62669271  0.39726983  0.86320440    -0.17400
C1215       C  0.61245562  0.41902127  0.86528012     0.11000
C1216       C  0.62324446  0.44215858  0.87784494    -0.06200
C1217       C  0.64833452  0.44340413  0.88787508    -0.17400
C1218       C  0.66225852  0.42155063  0.88589563     0.11000
S1219       S  0.57904157  0.41403169  0.85211245    -0.32400
S1220       S  0.69207653  0.42320909  0.90023562    -0.32400
H1221       H  0.67989809  0.38676519  0.89997340     0.29000
H1222       H  0.58382304  0.44782258  0.85401973     0.29000
H1223       H  0.61810663  0.37913448  0.85370014     0.19600
H1224       H  0.65615995  0.46066669  0.89767062     0.19600
C1225       C  0.43564127  0.80412533  0.04109389    -0.06200
C1226       C  0.43029169  0.77756816  0.03075860    -0.17400
C1227       C  0.40858519  0.74161479  0.03429873     0.11000
C1228       C  0.39210959  0.73169275  0.04864781    -0.06200
C1229       C  0.39763777  0.75820536  0.05903760    -0.17400
C1230       C  0.41890979  0.79420512  0.05538909     0.11000
S1231       S  0.40230560  0.70994304  0.01981779    -0.32400
S1232       S  0.42180845  0.82594969  0.06910063    -0.32400
H1233       H  0.42187524  0.84957558  0.05845893     0.29000
H1234       H  0.36693927  0.68483622  0.02348830     0.29000
H1235       H  0.44291922  0.78490182  0.01974973     0.19600
H1236       H  0.38442781  0.75074391  0.06992596     0.19600
C1237       C  0.19381763  0.60973318  0.04921123    -0.06200
C1238       C  0.21792016  0.62690506  0.03733869    -0.17400
C1239       C  0.25396042  0.63914782  0.03895642     0.11000
C1240       C  0.26674722  0.63485125  0.05288491    -0.06200
C1241       C  0.24286137  0.61818787  0.06488688    -0.17400
C1242       C  0.20651601  0.60541756  0.06317845     0.11000
S1243       S  0.28204108  0.65883213  0.02262653    -0.32400
S1244       S  0.17770925  0.58261321  0.07896425    -0.32400
H1245       H  0.14891297  0.55750939  0.07026602     0.29000
H1246       H  0.30229123  0.64298225  0.02503066     0.29000
H1247       H  0.20844886  0.63023494  0.02656278     0.19600
H1248       H  0.25252630  0.61463280  0.07556348     0.19600
C1249       C  0.36186812  0.60599451  0.05384061    -0.06200
C1250       C  0.34796496  0.58233709  0.04162931    -0.17400
C1251       C  0.35912498  0.55852928  0.03848575     0.11000
C1252       C  0.38546097  0.55856420  0.04752688    -0.06200
C1253       C  0.39831119  0.58102550  0.06017107    -0.17400
C1254       C  0.38656128  0.60451999  0.06349992     0.11000
S1255       S  0.33915386  0.52917905  0.02256277    -0.32400
S1256       S  0.40414220  0.63198461  0.08009684    -0.32400
H1257       H  0.37452945  0.63536409  0.08280209     0.29000
H1258       H  0.34163873  0.50108732  0.02860070     0.29000
H1259       H  0.32881701  0.58301518  0.03421747     0.19600
H1260       H  0.41838824  0.58105970  0.06720252     0.19600
C1261       C  0.72650895  0.31018712  0.22153449    -0.06200
C1262       C  0.74444684  0.31987269  0.20763727    -0.17400
C1263       C  0.76654219  0.30738319  0.20320799     0.11000
C1264       C  0.77064480  0.28419481  0.21278471    -0.06200
C1265       C  0.75324686  0.27499794  0.22683203    -0.17400
C1266       C  0.73123545  0.28772119  0.23131304     0.11000
S1267       S  0.78938720  0.32281637  0.18537606    -0.32400
S1268       S  0.70992884  0.27422747  0.24954457    -0.32400
H1269       H  0.70756699  0.30439500  0.25223115     0.29000
H1270       H  0.82056202  0.32421934  0.19004801     0.29000
H1271       H  0.74113136  0.33732923  0.20014612     0.19600
H1272       H  0.75637138  0.25731771  0.23425219     0.19600
C1273       C  0.70914936  0.41228589  0.22559323    -0.06200
C1274       C  0.70864571  0.43351703  0.23732332    -0.17400
C1275       C  0.72149320  0.46972456  0.23509177     0.11000
C1276       C  0.73413610  0.48493019  0.22064098    -0.06200
C1277       C  0.73472140  0.46341078  0.20901425    -0.17400
C1278       C  0.72224762  0.42753481  0.21126575     0.11000
S1279       S  0.72255943  0.49507417  0.25131197    -0.32400
S1280       S  0.72256691  0.40242312  0.19515213    -0.32400
H1281       H  0.69046064  0.37114785  0.19864743     0.29000
H1282       H  0.75458566  0.52588769  0.24726193     0.29000
H1283       H  0.69877615  0.42192950  0.24835755     0.19600
H1284       H  0.74373689  0.47418338  0.19780908     0.19600
C1285       C  0.60393748  0.29084580  0.22516237    -0.06200
C1286       C  0.58671222  0.30410663  0.21644660    -0.17400
C1287       C  0.55094414  0.28310062  0.21261676     0.11000
C1288       C  0.53198038  0.24672014  0.21635441    -0.06200
C1289       C  0.54837264  0.23362005  0.22566526    -0.17400
C1290       C  0.58361736  0.25544898  0.23047992     0.11000
S1291       S  0.53085569  0.30498322  0.20356879    -0.32400
S1292       S  0.60038181  0.23668573  0.24372445    -0.32400
H1293       H  0.62398827  0.26897541  0.25091236     0.29000
H1294       H  0.49730768  0.28360137  0.21030061     0.29000
H1295       H  0.60119664  0.33113235  0.21235251     0.19600
H1296       H  0.53381931  0.20605931  0.22908883     0.19600
C1297       C  0.96064407  0.01935726  0.04631311    -0.06200
C1298       C  0.92881561  0.00399722  0.03811324    -0.17400
C1299       C  0.90176291  0.01072051  0.04184600     0.11000
C1300       C  0.90695923  0.03463053  0.05373580    -0.06200
C1301       C  0.93933418  0.05059879  0.06160087    -0.17400
C1302       C  0.96560435  0.04260655  0.05835364     0.11000
S1303       S  0.86062230  0.98565652  0.03174574    -0.32400
S1304       S  0.00386700  0.05995716  0.07058571    -0.32400
H1305       H  0.99537807  0.08015026  0.08011478     0.29000
H1306       H  0.83926547  0.97739267  0.04474448     0.29000
H1307       H  0.92446297  0.98551459  0.02907490     0.19600
H1308       H  0.94396136  0.06907448  0.07062925     0.19600
C1309       C  0.16042389  0.09770535  0.04731087    -0.06200
C1310       C  0.14925053  0.07511622  0.03469894    -0.17400
C1311       C  0.11302494  0.05237282  0.03158795     0.11000
C1312       C  0.08724880  0.05191010  0.04137266    -0.06200
C1313       C  0.09864242  0.07607009  0.05345343    -0.17400
C1314       C  0.13472297  0.09902706  0.05643596     0.11000
S1315       S  0.10145699  0.02436551  0.01511146    -0.32400
S1316       S  0.14620545  0.12909880  0.07217981    -0.32400
H1317       H  0.17830609  0.15622375  0.06597376     0.29000
H1318       H  0.06853394  0.02147144  0.01265450     0.29000
H1319       H  0.16884007  0.07433503  0.02751283     0.19600
H1320       H  0.07925607  0.07622278  0.06099004     0.19600
C1321       C  0.99127565  0.92507792  0.04617928    -0.06200
C1322       C  0.00377570  0.91784725  0.05940200    -0.17400
C1323       C  0.99256091  0.88305645  0.06362786     0.11000
C1324       C  0.96772809  0.85447575  0.05459964    -0.06200
C1325       C  0.95622314  0.86165079  0.04106316    -0.17400
C1326       C  0.96783445  0.89661654  0.03672900     0.11000
S1327       S  0.01108666  0.87693812  0.08064096    -0.32400
S1328       S  0.95166913  0.90318146  0.01912266    -0.32400
H1329       H  0.98150521  0.93672209  0.01600489     0.29000
H1330       H  0.01043041  0.84625246  0.07566241     0.29000
H1331       H  0.02202523  0.93952376  0.06664247     0.19600
H1332       H  0.93737478  0.83986325  0.03402841     0.19600
C1333       C  0.48107977  0.78240139  0.71895694    -0.06200
C1334       C  0.47358940  0.76809380  0.70429745    -0.17400
C1335       C  0.43858345  0.74454736  0.69968105     0.11000
C1336       C  0.41044628  0.73492357  0.70997138    -0.06200
C1337       C  0.41791038  0.75013314  0.72443709    -0.17400
C1338       C  0.45268833  0.77399303  0.72896663     0.11000
S1339       S  0.43162136  0.72763393  0.68063836    -0.32400
S1340       S  0.45880409  0.79340589  0.74750490    -0.32400
H1341       H  0.48819832  0.82654502  0.74348426     0.29000
H1342       H  0.39718449  0.72161844  0.67905248     0.29000
H1343       H  0.49519741  0.77469140  0.69650444     0.19600
H1344       H  0.39636292  0.74310690  0.73233559     0.19600
C1345       C  0.28547364  0.70269454  0.71097494    -0.06200
C1346       C  0.27747786  0.71991032  0.69979795    -0.17400
C1347       C  0.25653681  0.73458608  0.70308153     0.11000
C1348       C  0.24264467  0.73142737  0.71781736    -0.06200
C1349       C  0.25009195  0.71348446  0.72887558    -0.17400
C1350       C  0.27160673  0.69953489  0.72568179     0.11000
S1351       S  0.25075788  0.75910874  0.68830319    -0.32400
S1352       S  0.28157459  0.67928547  0.74100194    -0.32400
H1353       H  0.31745769  0.69376387  0.73710946     0.29000
H1354       H  0.25374423  0.78615189  0.69782483     0.29000
H1355       H  0.28874249  0.72308354  0.68858925     0.19600
H1356       H  0.23967520  0.71097273  0.74021841     0.19600
C1357       C  0.31535743  0.60815188  0.70869509    -0.06200
C1358       C  0.29379245  0.58237755  0.69798693    -0.17400
C1359       C  0.28112348  0.54625980  0.70041816     0.11000
C1360       C  0.29041308  0.53566695  0.71379711    -0.06200
C1361       C  0.31258697  0.56153943  0.72428616    -0.17400
C1362       C  0.32491886  0.59741252  0.72196842     0.11000
S1363       S  0.25211570  0.51504573  0.68638994    -0.32400
S1364       S  0.35151986  0.62784581  0.73674222    -0.32400
H1365       H  0.33712316  0.64968865  0.73555613     0.29000
H1366       H  0.23063293  0.48777055  0.69656705     0.29000
H1367       H  0.28619617  0.59038961  0.68782839     0.19600
H1368       H  0.31964863  0.55358061  0.73461534     0.19600
C1369       C  0.10598074  0.97527457  0.87915321    -0.06200
C1370       C  0.07251257  0.95706893  0.87222594    -0.17400
C1371       C  0.04695886  0.96614485  0.87492017     0.11000
C1372       C  0.05355162  0.99265917  0.88570763    -0.06200
C1373       C  0.08637299  0.00987535  0.89320138    -0.17400
C1374       C  0.11286592  0.00218433  0.88980545     0.11000
S1375       S  0.00803368  0.94481059  0.86312380    -0.32400
S1376       S  0.15540823  0.02972551  0.89857396    -0.32400
H1377       H  0.17485914  0.03456184  0.88522194     0.29000
H1378       H  0.00645161  0.97555508  0.86092244     0.29000
H1379       H  0.06649992  0.93629866  0.86408220     0.19600
H1380       H  0.09195146  0.03053219  0.90135536     0.19600
C1381       C  0.02470669  0.08808578  0.88451774    -0.06200
C1382       C  0.01818708  0.09593318  0.87002268    -0.17400
C1383       C  0.02865914  0.13058466  0.86596605     0.11000
C1384       C  0.04709184  0.15842272  0.87648816    -0.06200
C1385       C  0.05259493  0.15040821  0.89117275    -0.17400
C1386       C  0.04134475  0.11546662  0.89532932     0.11000
S1387       S  0.01658303  0.13722174  0.84737567    -0.32400
S1388       S  0.04931261  0.10756084  0.91445624    -0.32400
H1389       H  0.02026315  0.07263827  0.91547679     0.29000
H1390       H  0.01103679  0.16475512  0.85168627     0.29000
H1391       H  0.00468280  0.07479177  0.86181255     0.19600
H1392       H  0.06637460  0.17156340  0.89934537     0.19600
C1393       C  0.85562600  0.91686542  0.88347749    -0.06200
C1394       C  0.86620393  0.93934525  0.89609891    -0.17400
C1395       C  0.90235182  0.96237979  0.89929686     0.11000
C1396       C  0.92818847  0.96270797  0.88967111    -0.06200
C1397       C  0.91735328  0.93887915  0.87750577    -0.17400
C1398       C  0.88149070  0.91583452  0.87439343     0.11000
S1399       S  0.91534653  0.99118491  0.91559586    -0.32400
S1400       S  0.87046761  0.88625582  0.85848379    -0.32400
H1401       H  0.83859188  0.85860619  0.86461036     0.29000
H1402       H  0.88088019  0.98114606  0.92038083     0.29000
H1403       H  0.84613524  0.93968410  0.90309478     0.19600
H1404       H  0.93700139  0.93899529  0.87005578     0.19600
loop_ 
_geom_bond_atom_site_label_1 
_geom_bond_atom_site_label_2 
_geom_bond_distance 
_geom_bond_site_symmetry_2 
_ccdc_geom_bond_type 
C1            C2   1.401   1_565  A
C1            C6   1.404       .  A
C1         C1396   1.480       .  S
C2            C3   1.399   1_655  A
C2            H7   1.084       .  S
C3            C4   1.402       .  A
C3         C1381   1.473       .  S
C4            C5   1.407       .  A
C4            H8   1.084       .  S
C5            C6   1.406   1_445  A
C5         C1372   1.488   1_545  S
C6            H9   1.084       .  S
N10          N11   1.321       .  A
N10          C14   1.351       .  A
N10         Cu18   2.106       .  S
N11          C12   1.345       .  A
N11         Cu17   2.064       .  S
C12          C13   1.381       .  A
C12          H15   1.082       .  S
C13          C14   1.392       .  A
C13          C94   1.482       .  S
C14          H16   1.082       .  S
Cu17         N20   2.064       .  S
Cu18         N28   2.107       .  S
Cu19         N21   2.082       .  S
Cu19         N27   2.083       .  S
N20          N21   1.320       .  A
N20          C24   1.339       .  A
N21          C22   1.350       .  A
C22          C23   1.392       .  A
C22          H25   1.081       .  S
C23          C24   1.385       .  A
C23        C1369   1.490       .  S
C24          H26   1.082       .  S
N27          N28   1.326       .  A
N27          C31   1.347       .  A
N28          C29   1.349       .  A
C29          C30   1.386       .  A
C29          H32   1.082       .  S
C30          C31   1.381       .  A
C30         C483   1.474       .  S
C31          H33   1.082       .  S
N34          N35   1.323       .  A
N34          C38   1.352       .  A
N34         Cu42   2.118       .  S
N35          C36   1.344       .  A
N35         Cu41   2.057       .  S
C36          C37   1.379       .  A
C36          H39   1.082       .  S
C37          C38   1.394       .  A
C37         C118   1.481       .  S
C38          H40   1.082       .  S
Cu41         N44   2.056       .  S
Cu42         N52   2.119       .  S
Cu43         N45   2.076       .  S
Cu43         N51   2.077       .  S
N44          N45   1.320       .  A
N44          C48   1.341       .  A
N45          C46   1.348       .  A
C46          C47   1.386       .  A
C46          H49   1.082       .  S
C47          C48   1.381       .  A
C47        C1384   1.476       .  S
C48          H50   1.082       .  S
N51          N52   1.326       .  A
N51          C55   1.346       .  A
N52          C53   1.353       .  A
C53          C54   1.391       .  A
C53          H56   1.082       .  S
C54          C55   1.379       .  A
C54         C435   1.479       .  S
C55          H57   1.082       .  S
N58          N59   1.323       .  A
N58          C62   1.350       .  A
N58         Cu66   2.106       .  S
N59          C60   1.346       .  A
N59         Cu65   2.065       .  S
C60          C61   1.381       .  A
C60          H63   1.082       .  S
C61          C62   1.391       .  A
C61         C142   1.481       .  S
C62          H64   1.082       .  S
Cu65         N68   2.064       .  S
Cu66         N76   2.106       .  S
Cu67         N69   2.070       .  S
Cu67         N75   2.071       .  S
N68          N69   1.322       .  A
N68          C72   1.342       .  A
N69          C70   1.347       .  A
C70          C71   1.382       .  A
C70          H73   1.082       .  S
C71          C72   1.380       .  A
C71        C1393   1.470       .  S
C72          H74   1.082       .  S
N75          N76   1.325       .  A
N75          C79   1.345       .  A
N76          C77   1.350       .  A
C77          C78   1.387       .  A
C77          H80   1.082       .  S
C78          C79   1.379       .  A
C78         C459   1.473       .  S
C79          H81   1.082       .  S
C82          C83   1.406       .  A
C82          C87   1.406       .  A
C82        C1357   1.482       .  S
C83          C84   1.404       .  A
C83          H88   1.084       .  S
C84          C85   1.400       .  A
C84        C1345   1.477       .  S
C85          C86   1.400       .  A
C85          H89   1.085       .  S
C86          C87   1.403       .  A
C86        C1336   1.477       .  S
C87          H90   1.084       .  S
N91          N92   1.323       .  A
N91          C95   1.350       .  A
N91         Cu99   2.110       .  S
N92          C93   1.346       .  A
N92         Cu98   2.068       .  S
C93          C94   1.381       .  A
C93          H96   1.082       .  S
C94          C95   1.391       .  A
C95          H97   1.082       .  S
Cu98        N101   2.068       .  S
Cu99        N109   2.110       .  S
Cu100       N102   2.078       .  S
Cu100       N108   2.078       .  S
N101        N102   1.321       .  A
N101        C105   1.343       .  A
N102        C103   1.348       .  A
C103        C104   1.386       .  A
C103        H106   1.082       .  S
C104        C105   1.383       .  A
C104       C1348   1.480       .  S
C105        H107   1.082       .  S
N108        N109   1.325       .  A
N108        C112   1.347       .  A
N109        C110   1.351       .  A
C110        C111   1.388       .  A
C110        H113   1.082       .  S
C111        C112   1.381       .  A
C111        C645   1.477   1_455  S
C112        H114   1.082       .  S
N115        N116   1.322       .  A
N115        C119   1.351       .  A
N115       Cu123   2.111       .  S
N116        C117   1.345       .  A
N116       Cu122   2.059       .  S
C117        C118   1.380       .  A
C117        H120   1.082       .  S
C118        C119   1.393       .  A
C119        H121   1.082       .  S
Cu122       N125   2.060       .  S
Cu123       N133   2.112       .  S
Cu124       N126   2.088       .  S
Cu124       N132   2.089       .  S
N125        N126   1.321       .  A
N125        C129   1.341       .  A
N126        C127   1.351       .  A
C127        C128   1.388       .  A
C127        H130   1.082       .  S
C128        C129   1.379       .  A
C128       C1360   1.477       .  S
C129        H131   1.082       .  S
N132        N133   1.326       .  A
N132        C136   1.348       .  A
N133        C134   1.351       .  A
C134        C135   1.387       .  A
C134        H137   1.082       .  S
C135        C136   1.382       .  A
C135        C597   1.478       .  S
C136        H138   1.082       .  S
N139        N140   1.323       .  A
N139        C143   1.351       .  A
N139       Cu147   2.112       .  S
N140        C141   1.345       .  A
N140       Cu146   2.065       .  S
C141        C142   1.380       .  A
C141        H144   1.082       .  S
C142        C143   1.392       .  A
C143        H145   1.082       .  S
Cu146       N149   2.065       .  S
Cu147       N157   2.113       .  S
Cu148       N150   2.079       .  S
Cu148       N156   2.080       .  S
N149        N150   1.321       .  A
N149        C153   1.343       .  A
N150        C151   1.347       .  A
C151        C152   1.385       .  A
C151        H154   1.082       .  S
C152        C153   1.382       .  A
C152       C1333   1.478       .  S
C153        H155   1.082       .  S
N156        N157   1.325       .  A
N156        C160   1.347       .  A
N157        C158   1.352       .  A
C158        C159   1.389       .  A
C158        H161   1.082   1_565  S
C159        C160   1.381       .  A
C159        C621   1.479   1_565  S
C160        H162   1.082       .  S
C163        C164   1.403       .  A
C163        C168   1.405   1_455  A
C163       C1321   1.483   1_455  S
C164        C165   1.404   1_565  A
C164        H169   1.084       .  S
C165        C166   1.406       .  A
C165       C1312   1.488       .  S
C166        C167   1.408   1_455  A
C166        H170   1.084       .  S
C167        C168   1.406   1_545  A
C167       C1297   1.491       .  S
C168        H171   1.084       .  S
N172        N173   1.322       .  A
N172        C176   1.349       .  A
N172       Cu180   2.098       .  S
N173        C174   1.346       .  A
N173       Cu179   2.068       .  S
C174        C175   1.382       .  A
C174        H177   1.082       .  S
C175        C176   1.390       .  A
C175        C280   1.479       .  S
C176        H178   1.082       .  S
Cu179       N182   2.068       .  S
Cu180       N190   2.099       .  S
Cu181       N183   2.092       .  S
Cu181       N189   2.092       .  S
N182        N183   1.320       .  A
N182        C186   1.340       .  A
N183        C184   1.351       .  A
C184        C185   1.395       .  A
C184        H187   1.080       .  S
C185        C186   1.387       .  A
C185       C1300   1.497       .  S
C186        H188   1.082       .  S
N189        N190   1.325       .  A
N189        C193   1.348       .  A
N190        C191   1.349       .  A
C191        C192   1.385       .  A
C191        H194   1.082       .  S
C192        C193   1.383       .  A
C192        C354   1.477       .  S
C193        H195   1.082       .  S
N196        N197   1.323       .  A
N196        C200   1.352       .  A
N196       Cu204   2.114       .  S
N197        C198   1.347       .  A
N197       Cu203   2.077       .  S
C198        C199   1.383       .  A
C198        H201   1.082       .  S
C199        C200   1.392       .  A
C199        C256   1.486       .  S
C200        H202   1.082       .  S
Cu203       N206   2.077       .  S
Cu204       N214   2.114       .  S
Cu205       N207   2.087       .  S
Cu205       N213   2.087       .  S
N206        N207   1.323       .  A
N206        C210   1.345       .  A
N207        C208   1.350       .  A
C208        C209   1.385       .  A
C208        H211   1.082       .  S
C209        C210   1.383       .  A
C209       C1309   1.480       .  S
C210        H212   1.082       .  S
N213        N214   1.325       .  A
N213        C217   1.348       .  A
N214        C215   1.352       .  A
C215        C216   1.389       .  A
C215        H218   1.082       .  S
C216        C217   1.383       .  A
C216        C378   1.483       .  S
C217        H219   1.082       .  S
N220        N221   1.323       .  A
N220        C224   1.352       .  A
N220       Cu228   2.120       .  S
N221        C222   1.346       .  A
N221       Cu227   2.066       .  S
C222        C223   1.381       .  A
C222        H225   1.082       .  S
C223        C224   1.394       .  A
C223        C304   1.484       .  S
C224        H226   1.082       .  S
Cu227       N230   2.066       .  S
Cu228       N238   2.120       .  S
Cu229       N231   2.086       .  S
Cu229       N237   2.087       .  S
N230        N231   1.322       .  A
N230        C234   1.343       .  A
N231        C232   1.350       .  A
C232        C233   1.386       .  A
C232        H235   1.082       .  S
C233        C234   1.381       .  A
C233       C1324   1.478       .  S
C234        H236   1.082       .  S
N237        N238   1.326       .  A
N237        C241   1.348       .  A
N238        C239   1.353       .  A
C239        C240   1.390       .  A
C239        H242   1.082       .  S
C240        C241   1.382       .  A
C240        C402   1.483       .  S
C241        H243   1.082       .  S
C244        C245   1.400       .  A
C244        C249   1.400       .  A
C244       C1273   1.478       .  S
C245        C246   1.410       .  A
C245        H250   1.083       .  S
C246        C247   1.410       .  A
C246       C1285   1.497       .  S
C247        C248   1.404       .  A
C247        H251   1.082       .  S
C248        C249   1.401       .  A
C248       C1261   1.478       .  S
C249        H252   1.084       .  S
N253        N254   1.323       .  A
N253        C257   1.351       .  A
N253       Cu261   2.108       .  S
N254        C255   1.348       .  A
N254       Cu260   2.077       .  S
C255        C256   1.384       .  A
C255        H258   1.082       .  S
C256        C257   1.391       .  A
C257        H259   1.082       .  S
Cu260       N263   2.077       .  S
Cu261       N271   2.108       .  S
Cu262       N264   2.080       .  S
Cu262       N270   2.080       .  S
N263        N264   1.322       .  A
N263        C267   1.343       .  A
N264        C265   1.348       .  A
C265        C266   1.387       .  A
C265        H268   1.082       .  S
C266        C267   1.386       .  A
C266       C1288   1.487       .  S
C267        H269   1.081       .  S
N270        N271   1.325       .  A
N270        C274   1.348       .  A
N271        C272   1.350       .  A
C272        C273   1.388       .  A
C272        H275   1.082       .  S
C273        C274   1.382       .  A
C273        C759   1.479   1_545  S
C274        H276   1.082       .  S
N277        N278   1.322       .  A
N277        C281   1.350       .  A
N277       Cu285   2.100       .  S
N278        C279   1.345       .  A
N278       Cu284   2.068       .  S
C279        C280   1.381       .  A
C279        H282   1.082       .  S
C280        C281   1.390       .  A
C281        H283   1.082       .  S
Cu284       N287   2.068       .  S
Cu285       N295   2.100       .  S
Cu286       N288   2.078       .  S
Cu286       N294   2.078       .  S
N287        N288   1.322       .  A
N287        C291   1.343       .  A
N288        C289   1.347       .  A
C289        C290   1.385       .  A
C289        H292   1.082       .  S
C290        C291   1.382       .  A
C290       C1264   1.477       .  S
C291        H293   1.082       .  S
N294        N295   1.325       .  A
N294        C298   1.346       .  A
N295        C296   1.349       .  A
C296        C297   1.386       .  A
C296        H299   1.082       .  S
C297        C298   1.380       .  A
C297        C807   1.473   1_655  S
C298        H300   1.082       .  S
N301        N302   1.323       .  A
N301        C305   1.353       .  A
N301       Cu309   2.122       .  S
N302        C303   1.345       .  A
N302       Cu308   2.063       .  S
C303        C304   1.380       .  A
C303        H306   1.082       .  S
C304        C305   1.394       .  A
C305        H307   1.082       .  S
Cu308       N311   2.062       .  S
Cu309       N319   2.122       .  S
Cu310       N312   2.079       .  S
Cu310       N318   2.080       .  S
N311        N312   1.319       .  A
N311        C315   1.341       .  A
N312        C313   1.348       .  A
C313        C314   1.391       .  A
C313        H316   1.081       .  S
C314        C315   1.386       .  A
C314       C1276   1.488       .  S
C315        H317   1.082       .  S
N318        N319   1.326       .  A
N318        C322   1.346       .  A
N319        C320   1.353       .  A
C320        C321   1.391       .  A
C320        H323   1.082       .  S
C321        C322   1.380       .  A
C321        C783   1.480       .  S
C322        H324   1.082       .  S
C325        C326   1.402       .  A
C325        C330   1.400       .  A
C325       C1240   1.478       .  S
C326        C327   1.406       .  A
C326        H331   1.084       .  S
C327        C328   1.407       .  A
C327       C1249   1.484       .  S
C328        C329   1.406       .  A
C328        H332   1.084       .  S
C329        C330   1.401       .  A
C329       C1228   1.479       .  S
C330        H333   1.084       .  S
N334        N335   1.323       .  A
N334        C338   1.349   1_565  A
N334       Cu342   2.103   1_566  S
N335        C336   1.345       .  A
N335       Cu341   2.064   1_556  S
C336        C337   1.380       .  A
C336        H339   1.082       .  S
C337        C338   1.390   1_565  A
C337        C466   1.477   1_565  S
C338        H340   1.082       .  S
Cu341       N344   2.064       .  S
Cu342       N352   2.104       .  S
Cu343       N345   2.080       .  S
Cu343       N351   2.080       .  S
N344        N345   1.321       .  A
N344        C348   1.343       .  A
N345        C346   1.347       .  A
C346        C347   1.386       .  A
C346        H349   1.082       .  S
C347        C348   1.382       .  A
C347       C1225   1.479       .  S
C348        H350   1.082       .  S
N351        N352   1.324   1_565  A
N351        C355   1.347   1_565  A
N352        C353   1.350       .  A
C353        C354   1.387       .  A
C353        H356   1.082       .  S
C354        C355   1.382       .  A
C355        H357   1.082   1_545  S
N358        N359   1.322       .  A
N358        C362   1.349       .  A
N358       Cu366   2.105   1_556  S
N359        C360   1.345       .  A
N359       Cu365   2.059   1_556  S
C360        C361   1.381       .  A
C360        H363   1.082       .  S
C361        C362   1.391       .  A
C361        C442   1.478       .  S
C362        H364   1.082       .  S
Cu365       N368   2.059       .  S
Cu366       N376   2.107       .  S
Cu367       N369   2.100       .  S
Cu367       N375   2.100       .  S
N368        N369   1.323       .  A
N368        C372   1.341       .  A
N369        C370   1.352       .  A
C370        C371   1.389       .  A
C370        H373   1.082       .  S
C371        C372   1.378       .  A
C371       C1252   1.478       .  S
C372        H374   1.082       .  S
N375        N376   1.326       .  A
N375        C379   1.350       .  A
N376        C377   1.351       .  A
C377        C378   1.387       .  A
C377        H380   1.082       .  S
C378        C379   1.385       .  A
C379        H381   1.082       .  S
N382        N383   1.322       .  A
N382        C386   1.351   1_455  A
N382       Cu390   2.115   1_456  S
N383        C384   1.345       .  A
N383       Cu389   2.058   1_556  S
C384        C385   1.380       .  A
C384        H387   1.082       .  S
C385        C386   1.394   1_455  A
C385        C418   1.482   1_455  S
C386        H388   1.082       .  S
Cu389       N392   2.057       .  S
Cu390       N400   2.117       .  S
Cu391       N393   2.090       .  S
Cu391       N399   2.092       .  S
N392        N393   1.322       .  A
N392        C396   1.340       .  A
N393        C394   1.351       .  A
C394        C395   1.389       .  A
C394        H397   1.082       .  S
C395        C396   1.379       .  A
C395       C1237   1.478       .  S
C396        H398   1.082       .  S
N399        N400   1.326   1_455  A
N399        C403   1.349       .  A
N400        C401   1.351       .  A
C401        C402   1.389       .  A
C401        H404   1.082       .  S
C402        C403   1.383   1_655  A
C403        H405   1.082       .  S
C406        C407   1.406       .  A
C406        C411   1.406       .  A
C406       C1189   1.489       .  S
C407        C408   1.401       .  A
C407        H412   1.084       .  S
C408        C409   1.399       .  A
C408       C1213   1.473       .  S
C409        C410   1.399       .  A
C409        H413   1.084       .  S
C410        C411   1.401       .  A
C410       C1204   1.470       .  S
C411        H414   1.083       .  S
N415        N416   1.323   1_455  A
N415        C419   1.351       .  A
N415       Cu423   2.117       .  S
N416        C417   1.345       .  A
N416       Cu422   2.061       .  S
C417        C418   1.380       .  A
C417        H420   1.082       .  S
C418        C419   1.393   1_655  A
C419        H421   1.082       .  S
Cu422       N425   2.061       .  S
Cu423       N433   2.117       .  S
Cu424       N426   2.071       .  S
Cu424       N432   2.072   1_655  S
N425        N426   1.320       .  A
N425        C429   1.341       .  A
N426        C427   1.346       .  A
C427        C428   1.387       .  A
C427        H430   1.082       .  S
C428        C429   1.385       .  A
C428       C1192   1.482       .  S
C429        H431   1.081       .  S
N432        N433   1.325       .  A
N432        C436   1.347       .  A
N433        C434   1.351       .  A
C434        C435   1.390       .  A
C434        H437   1.082       .  S
C435        C436   1.380       .  A
C436        H438   1.082       .  S
N439        N440   1.322       .  A
N439        C443   1.350       .  A
N439       Cu447   2.105       .  S
N440        C441   1.344       .  A
N440       Cu446   2.061       .  S
C441        C442   1.379       .  A
C441        H444   1.082       .  S
C442        C443   1.391       .  A
C443        H445   1.082       .  S
Cu446       N449   2.060       .  S
Cu447       N457   2.105       .  S
Cu448       N450   2.071       .  S
Cu448       N456   2.072       .  S
N449        N450   1.321       .  A
N449        C453   1.342       .  A
N450        C451   1.346       .  A
C451        C452   1.384       .  A
C451        H454   1.082       .  S
C452        C453   1.380       .  A
C452       C1216   1.469       .  S
C453        H455   1.082       .  S
N456        N457   1.325       .  A
N456        C460   1.346       .  A
N457        C458   1.350       .  A
C458        C459   1.387       .  A
C458        H461   1.082       .  S
C459        C460   1.379       .  A
C460        H462   1.082       .  S
N463        N464   1.323       .  A
N463        C467   1.349   1_545  A
N463       Cu471   2.104       .  S
N464        C465   1.345       .  A
N464       Cu470   2.061       .  S
C465        C466   1.380       .  A
C465        H468   1.082       .  S
C466        C467   1.390   1_545  A
C467        H469   1.082       .  S
Cu470       N473   2.060       .  S
Cu471       N481   2.104       .  S
Cu472       N474   2.073       .  S
Cu472       N480   2.074       .  S
N473        N474   1.320       .  A
N473        C477   1.342       .  A
N474        C475   1.346       .  A
C475        C476   1.387       .  A
C475        H478   1.082       .  S
C476        C477   1.383       .  A
C476       C1201   1.479       .  S
C477        H479   1.082       .  S
N480        N481   1.324       .  A
N480        C484   1.345       .  A
N481        C482   1.351   1_545  A
C482        C483   1.387       .  A
C482        H485   1.082       .  S
C483        C484   1.380   1_565  A
C484        H486   1.082       .  S
C487        C488   1.402   1_545  A
C487        C492   1.400       .  A
C487       C1165   1.476       .  S
C488        C489   1.403   1_455  A
C488        H493   1.084       .  S
C489        C490   1.405   1_565  A
C489       C1177   1.480       .  S
C490        C491   1.403       .  A
C490        H494   1.084   1_545  S
C491        C492   1.402   1_655  A
C491       C1153   1.480       .  S
C492        H495   1.084       .  S
N496        N497   1.322       .  A
N496        C500   1.349       .  A
N496       Cu504   2.102       .  S
N497        C498   1.345       .  A
N497       Cu503   2.064       .  S
C498        C499   1.381       .  A
C498        H501   1.082       .  S
C499        C500   1.390       .  A
C499        C604   1.479       .  S
C500        H502   1.082       .  S
Cu503       N506   2.064       .  S
Cu504       N514   2.103       .  S
Cu505       N507   2.075       .  S
Cu505       N513   2.075       .  S
N506        N507   1.322       .  A
N506        C510   1.342       .  A
N507        C508   1.347       .  A
C508        C509   1.383       .  A
C508        H511   1.082       .  S
C509        C510   1.381       .  A
C509       C1156   1.473       .  S
C510        H512   1.082       .  S
N513        N514   1.325       .  A
N513        C517   1.347       .  A
N514        C515   1.349       .  A
C515        C516   1.387       .  A
C515        H518   1.082       .  S
C516        C517   1.380       .  A
C516        C969   1.474       .  S
C517        H519   1.082       .  S
N520        N521   1.322       .  A
N520        C524   1.351       .  A
N520       Cu528   2.111       .  S
N521        C522   1.345       .  A
N521       Cu527   2.060       .  S
C522        C523   1.380       .  A
C522        H525   1.082       .  S
C523        C524   1.393       .  A
C523        C580   1.481       .  S
C524        H526   1.082       .  S
Cu527       N530   2.059       .  S
Cu528       N538   2.111       .  S
Cu529       N531   2.080       .  S
Cu529       N537   2.082       .  S
N530        N531   1.321       .  A
N530        C534   1.340       .  A
N531        C532   1.349       .  A
C532        C533   1.386       .  A
C532        H535   1.082       .  S
C533        C534   1.379       .  A
C533       C1168   1.474       .  S
C534        H536   1.082       .  S
N537        N538   1.326       .  A
N537        C541   1.347       .  A
N538        C539   1.351       .  A
C539        C540   1.388       .  A
C539        H542   1.082       .  S
C540        C541   1.381       .  A
C540        C921   1.478       .  S
C541        H543   1.082       .  S
N544        N545   1.323       .  A
N544        C548   1.351       .  A
N544       Cu552   2.115       .  S
N545        C546   1.345       .  A
N545       Cu551   2.058       .  S
C546        C547   1.379       .  A
C546        H549   1.082       .  S
C547        C548   1.393       .  A
C547        C628   1.480       .  S
C548        H550   1.082       .  S
Cu551       N554   2.058       .  S
Cu552       N562   2.116       .  S
Cu553       N555   2.079       .  S
Cu553       N561   2.080       .  S
N554        N555   1.321       .  A
N554        C558   1.342       .  A
N555        C556   1.347       .  A
C556        C557   1.384       .  A
C556        H559   1.082       .  S
C557        C558   1.380       .  A
C557       C1180   1.472       .  S
C558        H560   1.082       .  S
N561        N562   1.325       .  A
N561        C565   1.347       .  A
N562        C563   1.352       .  A
C563        C564   1.389       .  A
C563        H566   1.082       .  S
C564        C565   1.381       .  A
C564        C945   1.479       .  S
C565        H567   1.082       .  S
C568        C569   1.404       .  A
C568        C573   1.401       .  A
C568       C1141   1.482       .  S
C569        C570   1.409       .  A
C569        H574   1.084       .  S
C570        C571   1.409       .  A
C570       C1129   1.494       .  S
C571        C572   1.403       .  A
C571        H575   1.083       .  S
C572        C573   1.399       .  A
C572       C1117   1.475       .  S
C573        H576   1.084       .  S
N577        N578   1.323       .  A
N577        C581   1.350       .  A
N577       Cu585   2.111       .  S
N578        C579   1.346       .  A
N578       Cu584   2.064       .  S
C579        C580   1.381       .  A
C579        H582   1.082       .  S
C580        C581   1.392       .  A
C581        H583   1.082       .  S
Cu584       N587   2.064       .  S
Cu585       N595   2.111       .  S
Cu586       N588   2.080       .  S
Cu586       N594   2.081       .  S
N587        N588   1.322       .  A
N587        C591   1.343       .  A
N588        C589   1.348       .  A
C589        C590   1.384       .  A
C589        H592   1.082       .  S
C590        C591   1.379       .  A
C590       C1144   1.472       .  S
C591        H593   1.082       .  S
N594        N595   1.325       .  A
N594        C598   1.347       .  A
N595        C596   1.351       .  A
C596        C597   1.389       .  A
C596        H599   1.082       .  S
C597        C598   1.381       .  A
C598        H600   1.082       .  S
N601        N602   1.322       .  A
N601        C605   1.350       .  A
N601       Cu609   2.105       .  S
N602        C603   1.345       .  A
N602       Cu608   2.062       .  S
C603        C604   1.381       .  A
C603        H606   1.082       .  S
C604        C605   1.391       .  A
C605        H607   1.082       .  S
Cu608       N611   2.062       .  S
Cu609       N619   2.106       .  S
Cu610       N612   2.090       .  S
Cu610       N618   2.092       .  S
N611        N612   1.320       .  A
N611        C615   1.341       .  A
N612        C613   1.349       .  A
C613        C614   1.393       .  A
C613        H616   1.080       .  S
C614        C615   1.386       .  A
C614       C1132   1.493       .  S
C615        H617   1.082       .  S
N618        N619   1.325       .  A
N618        C622   1.349       .  A
N619        C620   1.350       .  A
C620        C621   1.387       .  A
C620        H623   1.082       .  S
C621        C622   1.383       .  A
C622        H624   1.082       .  S
N625        N626   1.322       .  A
N625        C629   1.351       .  A
N625       Cu633   2.111       .  S
N626        C627   1.344       .  A
N626       Cu632   2.059       .  S
C627        C628   1.379       .  A
C627        H630   1.082       .  S
C628        C629   1.393       .  A
C629        H631   1.082       .  S
Cu632       N635   2.058       .  S
Cu633       N643   2.112       .  S
Cu634       N636   2.083       .  S
Cu634       N642   2.085       .  S
N635        N636   1.319       .  A
N635        C639   1.339       .  A
N636        C637   1.350       .  A
C637        C638   1.392       .  A
C637        H640   1.082       .  S
C638        C639   1.384       .  A
C638       C1120   1.488       .  S
C639        H641   1.082       .  S
N642        N643   1.326       .  A
N642        C646   1.347       .  A
N643        C644   1.351       .  A
C644        C645   1.387       .  A
C644        H647   1.082       .  S
C645        C646   1.381       .  A
C646        H648   1.082       .  S
C649        C650   1.404   1_565  A
C649        C654   1.405       .  A
C649       C1108   1.482       .  S
C650        C651   1.408   1_655  A
C650        H655   1.083       .  S
C651        C652   1.405       .  A
C651       C1093   1.491       .  S
C652        C653   1.399   1_545  A
C652        H656   1.084       .  S
C653        C654   1.402   1_455  A
C653       C1084   1.476       .  S
C654        H657   1.084       .  S
N658        N659   1.323       .  A
N658        C662   1.351       .  A
N658       Cu666   2.110       .  S
N659        C660   1.344       .  A
N659       Cu665   2.060       .  S
C660        C661   1.379       .  A
C660        H663   1.082       .  S
C661        C662   1.392       .  A
C661        C742   1.479       .  S
C662        H664   1.082       .  S
Cu665       N668   2.060       .  S
Cu666       N676   2.110       .  S
Cu667       N669   2.078       .  S
Cu667       N675   2.079       .  S
N668        N669   1.320       .  A
N668        C672   1.342       .  A
N669        C670   1.347       .  A
C670        C671   1.387       .  A
C670        H673   1.082       .  S
C671        C672   1.383       .  A
C671       C1081   1.480       .  S
C672        H674   1.082       .  S
N675        N676   1.325       .  A
N675        C679   1.346       .  A
N676        C677   1.351       .  A
C677        C678   1.388       .  A
C677        H680   1.082       .  S
C678        C679   1.381       .  A
C678        C840   1.478       .  S
C679        H681   1.082       .  S
N682        N683   1.321       .  A
N682        C686   1.351       .  A
N682       Cu690   2.110       .  S
N683        C684   1.343       .  A
N683       Cu689   2.048       .  S
C684        C685   1.378       .  A
C684        H687   1.082       .  S
C685        C686   1.393       .  A
C685        C790   1.478       .  S
C686        H688   1.082       .  S
Cu689       N692   2.049       .  S
Cu690       N700   2.112       .  S
Cu691       N693   2.087       .  S
Cu691       N699   2.089       .  S
N692        N693   1.319       .  A
N692        C696   1.338       .  A
N693        C694   1.350       .  A
C694        C695   1.393       .  A
C694        H697   1.080       .  S
C695        C696   1.383       .  A
C695       C1096   1.488       .  S
C696        H698   1.082       .  S
N699        N700   1.327       .  A
N699        C703   1.348       .  A
N700        C701   1.351       .  A
C701        C702   1.388       .  A
C701        H704   1.082       .  S
C702        C703   1.382       .  A
C702        C864   1.480       .  S
C703        H705   1.082       .  S
N706        N707   1.322       .  A
N706        C710   1.348       .  A
N706       Cu714   2.098       .  S
N707        C708   1.347       .  A
N707       Cu713   2.069       .  S
C708        C709   1.382       .  A
C708        H711   1.082       .  S
C709        C710   1.390       .  A
C709        C766   1.480       .  S
C710        H712   1.082       .  S
Cu713       N716   2.068       .  S
Cu714       N724   2.098       .  S
Cu715       N717   2.085       .  S
Cu715       N723   2.086       .  S
N716        N717   1.321       .  A
N716        C720   1.340       .  A
N717        C718   1.350       .  A
C718        C719   1.391       .  A
C718        H721   1.081       .  S
C719        C720   1.385       .  A
C719       C1105   1.489       .  S
C720        H722   1.082       .  S
N723        N724   1.325       .  A
N723        C727   1.348       .  A
N724        C725   1.349       .  A
C725        C726   1.385       .  A
C725        H728   1.082       .  S
C726        C727   1.382       .  A
C726        C888   1.475       .  S
C727        H729   1.082       .  S
C730        C731   1.397       .  A
C730        C735   1.404       .  A
C730       C1057   1.474       .  S
C731        C732   1.397       .  A
C731        H736   1.084       .  S
C732        C733   1.398       .  A
C732       C1069   1.469       .  S
C733        C734   1.408       .  A
C733        H737   1.083       .  S
C734        C735   1.411       .  A
C734       C1048   1.494       .  S
C735        H738   1.082       .  S
N739        N740   1.322       .  A
N739        C743   1.350       .  A
N739       Cu747   2.110       .  S
N740        C741   1.344       .  A
N740       Cu746   2.054       .  S
C741        C742   1.379       .  A
C741        H744   1.082       .  S
C742        C743   1.392       .  A
C743        H745   1.082       .  S
Cu746       N749   2.055       .  S
Cu747       N757   2.111       .  S
Cu748       N750   2.081       .  S
Cu748       N756   2.083       .  S
N749        N750   1.319       .  A
N749        C753   1.339       .  A
N750        C751   1.348       .  A
C751        C752   1.391       .  A
C751        H754   1.082       .  S
C752        C753   1.384       .  A
C752       C1045   1.486       .  S
C753        H755   1.081       .  S
N756        N757   1.326       .  A
N756        C760   1.347       .  A
N757        C758   1.351       .  A
C758        C759   1.388       .  A
C758        H761   1.082       .  S
C759        C760   1.381       .  A
C760        H762   1.082       .  S
N763        N764   1.322       .  A
N763        C767   1.352       .  A
N763       Cu771   2.110       .  S
N764        C765   1.343       .  A
N764       Cu770   2.057       .  S
C765        C766   1.380       .  A
C765        H768   1.082       .  S
C766        C767   1.392       .  A
C767        H769   1.082       .  S
Cu770       N773   2.057       .  S
Cu771       N781   2.112       .  S
Cu772       N774   2.089       .  S
Cu772       N780   2.090       .  S
N773        N774   1.321       .  A
N773        C777   1.341       .  A
N774        C775   1.349       .  A
C775        C776   1.391       .  A
C775        H778   1.082       .  S
C776        C777   1.381       .  A
C776       C1060   1.483       .  S
C777        H779   1.082       .  S
N780        N781   1.326       .  A
N780        C784   1.349       .  A
N781        C782   1.350       .  A
C782        C783   1.388       .  A
C782        H785   1.082       .  S
C783        C784   1.383       .  A
C784        H786   1.082       .  S
N787        N788   1.322       .  A
N787        C791   1.349       .  A
N787       Cu795   2.105       .  S
N788        C789   1.345       .  A
N788       Cu794   2.056       .  S
C789        C790   1.379       .  A
C789        H792   1.082       .  S
C790        C791   1.392       .  A
C791        H793   1.082       .  S
Cu794       N797   2.056       .  S
Cu795       N805   2.106       .  S
Cu796       N798   2.072       .  S
Cu796       N804   2.073       .  S
N797        N798   1.320       .  A
N797        C801   1.340       .  A
N798        C799   1.346       .  A
C799        C800   1.387       .  A
C799        H802   1.082       .  S
C800        C801   1.382       .  A
C800       C1072   1.479       .  S
C801        H803   1.082       .  S
N804        N805   1.325       .  A
N804        C808   1.346       .  A
N805        C806   1.350       .  A
C806        C807   1.386       .  A
C806        H809   1.082       .  S
C807        C808   1.380       .  A
C808        H810   1.082       .  S
C811        C812   1.408       .  A
C811        C816   1.407       .  A
C811       C1009   1.496       .  S
C812        C813   1.403       .  A
C812        H817   1.083       .  S
C813        C814   1.403       .  A
C813       C1024   1.483       .  S
C814        C815   1.404       .  A
C814        H818   1.084       .  S
C815        C816   1.404       .  A
C815       C1033   1.483       .  S
C816        H819   1.083       .  S
N820        N821   1.321       .  A
N820        C824   1.350   1_655  A
N820       Cu828   2.103       .  S
N821        C822   1.345       .  A
N821       Cu827   2.062       .  S
C822        C823   1.381       .  A
C822        H825   1.082       .  S
C823        C824   1.391   1_655  A
C823        C952   1.480       .  S
C824        H826   1.082       .  S
Cu827       N830   2.062       .  S
Cu828       N838   2.104   1_655  S
Cu829       N831   2.088       .  S
Cu829       N837   2.089       .  S
N830        N831   1.321       .  A
N830        C834   1.340       .  A
N831        C832   1.350       .  A
C832        C833   1.391       .  A
C832        H835   1.082       .  S
C833        C834   1.384       .  A
C833       C1012   1.488       .  S
C834        H836   1.081       .  S
N837        N838   1.326   1_655  A
N837        C841   1.349       .  A
N838        C839   1.349       .  A
C839        C840   1.386       .  A
C839        H842   1.082       .  S
C840        C841   1.383   1_455  A
C841        H843   1.082       .  S
N844        N845   1.323       .  A
N844        C848   1.349       .  A
N844       Cu852   2.106       .  S
N845        C846   1.346       .  A
N845       Cu851   2.066       .  S
C846        C847   1.381       .  A
C846        H849   1.082       .  S
C847        C848   1.391       .  A
C847        C928   1.480       .  S
C848        H850   1.082       .  S
Cu851       N854   2.066       .  S
Cu852       N862   2.106       .  S
Cu853       N855   2.086       .  S
Cu853       N861   2.087       .  S
N854        N855   1.322       .  A
N854        C858   1.343       .  A
N855        C856   1.349       .  A
C856        C857   1.386       .  A
C856        H859   1.082       .  S
C857        C858   1.381       .  A
C857       C1036   1.477       .  S
C858        H860   1.082       .  S
N861        N862   1.325       .  A
N861        C865   1.348       .  A
N862        C863   1.351       .  A
C863        C864   1.388       .  A
C863        H866   1.082       .  S
C864        C865   1.383       .  A
C865        H867   1.082       .  S
N868        N869   1.322   1_565  A
N868        C872   1.348       .  A
N868       Cu876   2.098       .  S
N869        C870   1.345       .  A
N869       Cu875   2.061       .  S
C870        C871   1.380   1_545  A
C870        H873   1.082       .  S
C871        C872   1.390       .  A
C871        C904   1.477       .  S
C872        H874   1.082       .  S
Cu875       N878   2.061       .  S
Cu876       N886   2.099       .  S
Cu877       N879   2.085       .  S
Cu877       N885   2.085   1_545  S
N878        N879   1.322       .  A
N878        C882   1.342       .  A
N879        C880   1.349       .  A
C880        C881   1.386       .  A
C880        H883   1.082       .  S
C881        C882   1.379       .  A
C881       C1021   1.474       .  S
C882        H884   1.082       .  S
N885        N886   1.325       .  A
N885        C889   1.347       .  A
N886        C887   1.349       .  A
C887        C888   1.386       .  A
C887        H890   1.082       .  S
C888        C889   1.382       .  A
C889        H891   1.082       .  S
C892        C893   1.400       .  A
C892        C897   1.401       .  A
C892        C997   1.475       .  S
C893        C894   1.406       .  A
C893        H898   1.083       .  S
C894        C895   1.411       .  A
C894        C976   1.494       .  S
C895        C896   1.404       .  A
C895        H899   1.083       .  S
C896        C897   1.402       .  A
C896        C985   1.480       .  S
C897        H900   1.084       .  S
N901        N902   1.321       .  A
N901        C905   1.350   1_565  A
N901       Cu909   2.101   1_565  S
N902        C903   1.343       .  A
N902       Cu908   2.053       .  S
C903        C904   1.379       .  A
C903        H906   1.082       .  S
C904        C905   1.391   1_565  A
C905        H907   1.082       .  S
Cu908       N911   2.054       .  S
Cu909       N919   2.103       .  S
Cu910       N912   2.092       .  S
Cu910       N918   2.093       .  S
N911        N912   1.320       .  A
N911        C915   1.339       .  A
N912        C913   1.350       .  A
C913        C914   1.393       .  A
C913        H916   1.082       .  S
C914        C915   1.383       .  A
C914        C973   1.488       .  S
C915        H917   1.081       .  S
N918        N919   1.326   1_565  A
N918        C922   1.349   1_565  A
N919        C920   1.349       .  A
C920        C921   1.386       .  A
C920        H923   1.082       .  S
C921        C922   1.383       .  A
C922        H924   1.082   1_545  S
N925        N926   1.324       .  A
N925        C929   1.351       .  A
N925       Cu933   2.110       .  S
N926        C927   1.345       .  A
N926       Cu932   2.066       .  S
C927        C928   1.380       .  A
C927        H930   1.082       .  S
C928        C929   1.391       .  A
C929        H931   1.082       .  S
Cu932       N935   2.066       .  S
Cu933       N943   2.111       .  S
Cu934       N936   2.083       .  S
Cu934       N942   2.083       .  S
N935        N936   1.320       .  A
N935        C939   1.344       .  A
N936        C937   1.347       .  A
C937        C938   1.390       .  A
C937        H940   1.082       .  S
C938        C939   1.386       .  A
C938        C988   1.488       .  S
C939        H941   1.082       .  S
N942        N943   1.325       .  A
N942        C946   1.347       .  A
N943        C944   1.352       .  A
C944        C945   1.389       .  A
C944        H947   1.082       .  S
C945        C946   1.381       .  A
C946        H948   1.082       .  S
N949        N950   1.323       .  A
N949        C953   1.350   1_455  A
N949       Cu957   2.105   1_455  S
N950        C951   1.345       .  A
N950       Cu956   2.067       .  S
C951        C952   1.381   1_455  A
C951        H954   1.082       .  S
C952        C953   1.391       .  A
C953        H955   1.082       .  S
Cu956       N959   2.067       .  S
Cu957       N967   2.105       .  S
Cu958       N960   2.070       .  S
Cu958       N966   2.071       .  S
N959        N960   1.320       .  A
N959        C963   1.343       .  A
N960        C961   1.346       .  A
C961        C962   1.386       .  A
C961        H964   1.082       .  S
C962        C963   1.384       .  A
C962       C1000   1.479       .  S
C963        H965   1.082       .  S
N966        N967   1.324   1_455  A
N966        C970   1.345   1_455  A
N967        C968   1.350       .  A
C968        C969   1.388       .  A
C968        H971   1.082       .  S
C969        C970   1.379       .  A
C970        H972   1.082   1_655  S
C973        C974   1.405       .  A
C973        C978   1.416       .  A
C974        C975   1.403       .  A
C974        H983   1.083       .  S
C975        C976   1.419       .  A
C975        S979   1.804       .  S
C976        C977   1.405       .  A
C977        C978   1.396       .  A
C977        H984   1.083       .  S
C978        S980   1.804       .  S
S979        H982   1.407       .  S
S980        H981   1.407       .  S
C985        C986   1.402       .  A
C985        C990   1.412       .  A
C986        C987   1.403       .  A
C986        H995   1.084       .  S
C987        C988   1.417       .  A
C987        S991   1.801       .  S
C988        C989   1.406       .  A
C989        C990   1.399       .  A
C989        H996   1.083       .  S
C990        S992   1.804       .  S
S991        H994   1.407       .  S
S992        H993   1.405       .  S
C997        C998   1.403       .  A
C997       C1002   1.410       .  A
C998        C999   1.402       .  A
C998       H1007   1.084       .  S
C999       C1000   1.414       .  A
C999       S1003   1.803       .  S
C1000      C1001   1.404       .  A
C1001      C1002   1.396       .  A
C1001      H1008   1.084       .  S
C1002      S1004   1.804       .  S
S1003      H1006   1.407       .  S
S1004      H1005   1.405       .  S
C1009      C1010   1.407       .  A
C1009      C1014   1.419       .  A
C1010      C1011   1.396       .  A
C1010      H1019   1.083       .  S
C1011      C1012   1.415       .  A
C1011      S1015   1.804       .  S
C1012      C1013   1.405       .  A
C1013      C1014   1.404       .  A
C1013      H1020   1.083       .  S
C1014      S1016   1.804       .  S
S1015      H1018   1.407       .  S
S1016      H1017   1.407       .  S
C1021      C1022   1.403       .  A
C1021      C1026   1.412       .  A
C1022      C1023   1.404       .  A
C1022      H1031   1.084       .  S
C1023      C1024   1.414       .  A
C1023      S1027   1.803       .  S
C1024      C1025   1.404       .  A
C1025      C1026   1.397       .  A
C1025      H1032   1.084       .  S
C1026      S1028   1.805       .  S
S1027      H1030   1.406       .  S
S1028      H1029   1.406       .  S
C1033      C1034   1.406       .  A
C1033      C1038   1.412       .  A
C1034      C1035   1.405       .  A
C1034      H1043   1.083       .  S
C1035      C1036   1.409       .  A
C1035      S1039   1.806       .  S
C1036      C1037   1.403       .  A
C1037      C1038   1.402       .  A
C1037      H1044   1.083       .  S
C1038      S1040   1.808       .  S
S1039      H1042   1.407       .  S
S1040      H1041   1.407       .  S
C1045      C1046   1.406       .  A
C1045      C1050   1.414       .  A
C1046      C1047   1.403       .  A
C1046      H1055   1.083       .  S
C1047      C1048   1.417       .  A
C1047      S1051   1.803       .  S
C1048      C1049   1.408       .  A
C1049      C1050   1.394       .  A
C1049      H1056   1.083       .  S
C1050      S1052   1.805       .  S
S1051      H1054   1.407       .  S
S1052      H1053   1.407       .  S
C1057      C1058   1.402       .  A
C1057      C1062   1.410       .  A
C1058      C1059   1.402       .  A
C1058      H1067   1.084       .  S
C1059      C1060   1.415       .  A
C1059      S1063   1.801       .  S
C1060      C1061   1.406       .  A
C1061      C1062   1.397       .  A
C1061      H1068   1.084       .  S
C1062      S1064   1.805       .  S
S1063      H1066   1.406       .  S
S1064      H1065   1.404       .  S
C1069      C1070   1.401       .  A
C1069      C1074   1.411       .  A
C1070      C1071   1.402       .  A
C1070      H1079   1.084       .  S
C1071      C1072   1.416       .  A
C1071      S1075   1.801       .  S
C1072      C1073   1.404       .  A
C1073      C1074   1.393       .  A
C1073      H1080   1.084       .  S
C1074      S1076   1.806       .  S
S1075      H1078   1.407       .  S
S1076      H1077   1.403       .  S
C1081      C1082   1.403       .  A
C1081      C1086   1.412       .  A
C1082      C1083   1.396       .  A
C1082      H1091   1.084       .  S
C1083      C1084   1.411       .  A
C1083      S1087   1.802       .  S
C1084      C1085   1.403       .  A
C1085      C1086   1.406       .  A
C1085      H1092   1.083       .  S
C1086      S1088   1.806       .  S
S1087      H1090   1.405       .  S
S1088      H1089   1.407       .  S
C1093      C1094   1.407       .  A
C1093      C1098   1.416       .  A
C1094      C1095   1.402       .  A
C1094      H1103   1.084       .  S
C1095      C1096   1.416       .  A
C1095      S1099   1.800       .  S
C1096      C1097   1.405       .  A
C1097      C1098   1.395       .  A
C1097      H1104   1.083       .  S
C1098      S1100   1.802   1_455  S
S1099      H1102   1.407       .  S
S1100      H1101   1.405       .  S
C1105      C1106   1.404       .  A
C1105      C1110   1.417       .  A
C1106      C1107   1.394       .  A
C1106      H1115   1.083       .  S
C1107      C1108   1.412       .  A
C1107      S1111   1.803       .  S
C1108      C1109   1.404       .  A
C1109      C1110   1.407       .  A
C1109      H1116   1.084       .  S
C1110      S1112   1.801       .  S
S1111      H1114   1.400       .  S
S1112      H1113   1.407       .  S
C1117      C1118   1.404       .  A
C1117      C1122   1.413       .  A
C1118      C1119   1.406       .  A
C1118      H1127   1.084       .  S
C1119      C1120   1.417       .  A
C1119      S1123   1.801       .  S
C1120      C1121   1.405       .  A
C1121      C1122   1.393       .  A
C1121      H1128   1.083       .  S
C1122      S1124   1.811       .  S
S1123      H1126   1.407       .  S
S1124      H1125   1.398       .  S
C1129      C1130   1.406       .  A
C1129      C1134   1.417       .  A
C1130      C1131   1.403       .  A
C1130      H1139   1.084       .  S
C1131      C1132   1.417       .  A
C1131      S1135   1.800       .  S
C1132      C1133   1.407       .  A
C1133      C1134   1.398       .  A
C1133      H1140   1.083       .  S
C1134      S1136   1.802       .  S
S1135      H1138   1.407       .  S
S1136      H1137   1.404       .  S
C1141      C1142   1.405       .  A
C1141      C1146   1.415       .  A
C1142      C1143   1.397       .  A
C1142      H1151   1.084       .  S
C1143      C1144   1.410       .  A
C1143      S1147   1.804       .  S
C1144      C1145   1.402       .  A
C1145      C1146   1.402       .  A
C1145      H1152   1.084       .  S
C1146      S1148   1.804       .  S
S1147      H1150   1.406       .  S
S1148      H1149   1.406       .  S
C1153      C1154   1.403       .  A
C1153      C1158   1.414       .  A
C1154      C1155   1.395       .  A
C1154      H1163   1.084   1_655  S
C1155      C1156   1.411       .  A
C1155      S1159   1.804   1_655  S
C1156      C1157   1.403       .  A
C1157      C1158   1.403       .  A
C1157      H1164   1.084       .  S
C1158      S1160   1.803       .  S
S1159      H1162   1.407       .  S
S1160      H1161   1.406       .  S
C1165      C1166   1.404       .  A
C1165      C1170   1.413       .  A
C1166      C1167   1.402       .  A
C1166      H1175   1.084       .  S
C1167      C1168   1.413       .  A
C1167      S1171   1.803       .  S
C1168      C1169   1.402       .  A
C1169      C1170   1.394       .  A
C1169      H1176   1.084       .  S
C1170      S1172   1.805   1_545  S
S1171      H1174   1.406       .  S
S1172      H1173   1.406   1_565  S
C1177      C1178   1.404       .  A
C1177      C1182   1.414       .  A
C1178      C1179   1.396       .  A
C1178      H1187   1.084       .  S
C1179      C1180   1.412       .  A
C1179      S1183   1.804       .  S
C1180      C1181   1.402       .  A
C1181      C1182   1.401       .  A
C1181      H1188   1.084       .  S
C1182      S1184   1.804       .  S
S1183      H1186   1.406       .  S
S1184      H1185   1.406       .  S
C1189      C1190   1.406       .  A
C1189      C1194   1.416       .  A
C1190      C1191   1.394       .  A
C1190      H1199   1.083       .  S
C1191      C1192   1.413       .  A
C1191      S1195   1.804       .  S
C1192      C1193   1.405       .  A
C1193      C1194   1.401       .  A
C1193      H1200   1.083       .  S
C1194      S1196   1.804       .  S
S1195      H1198   1.407       .  S
S1196      H1197   1.407       .  S
C1201      C1202   1.405       .  A
C1201      C1206   1.415       .  A
C1202      C1203   1.396       .  A
C1202      H1211   1.084       .  S
C1203      C1204   1.410       .  A
C1203      S1207   1.806       .  S
C1204      C1205   1.400       .  A
C1205      C1206   1.400       .  A
C1205      H1212   1.084       .  S
C1206      S1208   1.802       .  S
S1207      H1210   1.403       .  S
S1208      H1209   1.407       .  S
C1213      C1214   1.402       .  A
C1213      C1218   1.413       .  A
C1214      C1215   1.402       .  A
C1214      H1223   1.084       .  S
C1215      C1216   1.413       .  A
C1215      S1219   1.804       .  S
C1216      C1217   1.400       .  A
C1217      C1218   1.394       .  A
C1217      H1224   1.084       .  S
C1218      S1220   1.806       .  S
S1219      H1222   1.402       .  S
S1220      H1221   1.406       .  S
C1225      C1226   1.404       .  A
C1225      C1230   1.413       .  A
C1226      C1227   1.399       .  A
C1226      H1235   1.084       .  S
C1227      C1228   1.414       .  A
C1227      S1231   1.805       .  S
C1228      C1229   1.403       .  A
C1229      C1230   1.401       .  A
C1229      H1236   1.084       .  S
C1230      S1232   1.802       .  S
S1231      H1234   1.403       .  S
S1232      H1233   1.407       .  S
C1237      C1238   1.403       .  A
C1237      C1242   1.414       .  A
C1238      C1239   1.395       .  A
C1238      H1247   1.084       .  S
C1239      C1240   1.412       .  A
C1239      S1243   1.804       .  S
C1240      C1241   1.404       .  A
C1241      C1242   1.404       .  A
C1241      H1248   1.084       .  S
C1242      S1244   1.802       .  S
S1243      H1246   1.406       .  S
S1244      H1245   1.406       .  S
C1249      C1250   1.403       .  A
C1249      C1254   1.415       .  A
C1250      C1251   1.396       .  A
C1250      H1259   1.084       .  S
C1251      C1252   1.412       .  A
C1251      S1255   1.804       .  S
C1252      C1253   1.404       .  A
C1253      C1254   1.406       .  A
C1253      H1260   1.084       .  S
C1254      S1256   1.803       .  S
S1255      H1258   1.406       .  S
S1256      H1257   1.406       .  S
C1261      C1262   1.402       .  A
C1261      C1266   1.413       .  A
C1262      C1263   1.397       .  A
C1262      H1271   1.084       .  S
C1263      C1264   1.413       .  A
C1263      S1267   1.803       .  S
C1264      C1265   1.404       .  A
C1265      C1266   1.403       .  A
C1265      H1272   1.084       .  S
C1266      S1268   1.804       .  S
S1267      H1270   1.406       .  S
S1268      H1269   1.405       .  S
C1273      C1274   1.403       .  A
C1273      C1278   1.412       .  A
C1274      C1275   1.405       .  A
C1274      H1283   1.084       .  S
C1275      C1276   1.418       .  A
C1275      S1279   1.801       .  S
C1276      C1277   1.406       .  A
C1277      C1278   1.394       .  A
C1277      H1284   1.083       .  S
C1278      S1280   1.806       .  S
S1279      H1282   1.407       .  S
S1280      H1281   1.406       .  S
C1285      C1286   1.408       .  A
C1285      C1290   1.419       .  A
C1286      C1287   1.395       .  A
C1286      H1295   1.083       .  S
C1287      C1288   1.412       .  A
C1287      S1291   1.804       .  S
C1288      C1289   1.406       .  A
C1289      C1290   1.405       .  A
C1289      H1296   1.083       .  S
C1290      S1292   1.804       .  S
S1291      H1294   1.407       .  S
S1292      H1293   1.407       .  S
C1297      C1298   1.405       .  A
C1297      C1302   1.412       .  A
C1298      C1299   1.406       .  A
C1298      H1307   1.084   1_545  S
C1299      C1300   1.419       .  A
C1299      S1303   1.800   1_545  S
C1300      C1301   1.408       .  A
C1301      C1302   1.401       .  A
C1301      H1308   1.081       .  S
C1302      S1304   1.810   1_655  S
S1303      H1306   1.407       .  S
S1304      H1305   1.406   1_455  S
C1309      C1310   1.403       .  A
C1309      C1314   1.412       .  A
C1310      C1311   1.405       .  A
C1310      H1319   1.084       .  S
C1311      C1312   1.416       .  A
C1311      S1315   1.803       .  S
C1312      C1313   1.404       .  A
C1313      C1314   1.399       .  A
C1313      H1320   1.083       .  S
C1314      S1316   1.804       .  S
S1315      H1318   1.406       .  S
S1316      H1317   1.406       .  S
C1321      C1322   1.403   1_655  A
C1321      C1326   1.414       .  A
C1322      C1323   1.398   1_455  A
C1322      H1331   1.084       .  S
C1323      C1324   1.413       .  A
C1323      S1327   1.804   1_655  S
C1324      C1325   1.403       .  A
C1325      C1326   1.404       .  A
C1325      H1332   1.084       .  S
C1326      S1328   1.803       .  S
S1327      H1330   1.407       .  S
S1328      H1329   1.406       .  S
C1333      C1334   1.405       .  A
C1333      C1338   1.413       .  A
C1334      C1335   1.403       .  A
C1334      H1343   1.084       .  S
C1335      C1336   1.412       .  A
C1335      S1339   1.803       .  S
C1336      C1337   1.402       .  A
C1337      C1338   1.396       .  A
C1337      H1344   1.084       .  S
C1338      S1340   1.804       .  S
S1339      H1342   1.406       .  S
S1340      H1341   1.407       .  S
C1345      C1346   1.402       .  A
C1345      C1350   1.412       .  A
C1346      C1347   1.402       .  A
C1346      H1355   1.084       .  S
C1347      C1348   1.415       .  A
C1347      S1351   1.802       .  S
C1348      C1349   1.404       .  A
C1349      C1350   1.398       .  A
C1349      H1356   1.084       .  S
C1350      S1352   1.804       .  S
S1351      H1354   1.407       .  S
S1352      H1353   1.405       .  S
C1357      C1358   1.405       .  A
C1357      C1362   1.414       .  A
C1358      C1359   1.405       .  A
C1358      H1367   1.084       .  S
C1359      C1360   1.413       .  A
C1359      S1363   1.803       .  S
C1360      C1361   1.402       .  A
C1361      C1362   1.396       .  A
C1361      H1368   1.084       .  S
C1362      S1364   1.805       .  S
S1363      H1366   1.406       .  S
S1364      H1365   1.405       .  S
C1369      C1370   1.405       .  A
C1369      C1374   1.417   1_565  A
C1370      C1371   1.395       .  A
C1370      H1379   1.083       .  S
C1371      C1372   1.416       .  A
C1371      S1375   1.805       .  S
C1372      C1373   1.406   1_565  A
C1373      C1374   1.404       .  A
C1373      H1380   1.084       .  S
C1374      S1376   1.800       .  S
S1375      H1378   1.407       .  S
S1376      H1377   1.407       .  S
C1381      C1382   1.400       .  A
C1381      C1386   1.411       .  A
C1382      C1383   1.396       .  A
C1382      H1391   1.084       .  S
C1383      C1384   1.414       .  A
C1383      S1387   1.804       .  S
C1384      C1385   1.404       .  A
C1385      C1386   1.402       .  A
C1385      H1392   1.084       .  S
C1386      S1388   1.803       .  S
S1387      H1390   1.407       .  S
S1388      H1389   1.406       .  S
C1393      C1394   1.402       .  A
C1393      C1398   1.410       .  A
C1394      C1395   1.405       .  A
C1394      H1403   1.083       .  S
C1395      C1396   1.412       .  A
C1395      S1399   1.806       .  S
C1396      C1397   1.403       .  A
C1397      C1398   1.394       .  A
C1397      H1404   1.083       .  S
C1398      S1400   1.804       .  S
S1399      H1402   1.407       .  S
S1400      H1401   1.406       .  S
