geometry optimzed in LAMMPS
_audit_creation_date              2020-12-01 
_audit_creation_method            'lammps2cif' 
_symmetry_space_group_name_H-M    'P1' 
_symmetry_Int_Tables_number       1 
_symmetry_cell_setting            triclinic 
loop_ 
_symmetry_equiv_pos_as_xyz 
  x,y,z 
_cell_length_a                    39.45220923 
_cell_length_b                    25.831009062555108 
_cell_length_c                    43.099017181318665 
_cell_angle_alpha                 89.99729848628807 
_cell_angle_beta                  90.01224065177601 
_cell_angle_gamma                 90.01980100760346 
loop_ 
_atom_site_label 
_atom_site_type_symbol 
_atom_site_fract_x 
_atom_site_fract_y 
_atom_site_fract_z 
_atom_site_charge 
O1          O  0.60075580  0.58256442  0.47696988    -0.72700
O2          O  0.60223354  0.49813719  0.05519114    -0.73700
O3          O  0.65165337  0.53995458  0.01582990    -0.62300
O4          O  0.54950467  0.54029939  0.01677261    -0.70800
O5          O  0.54910945  0.46821819  0.48877840    -0.70300
O6          O  0.65115693  0.46643217  0.48900445    -0.61600
O7          O  0.60020342  0.42497608  0.02818500    -0.74100
O8          O  0.60185061  0.50927706  0.45004607    -0.72900
Cu9        Cu  0.60083210  0.54277821  0.01718833     1.04600
Cu10       Cu  0.60034267  0.46471749  0.48802230     1.04300
C11         C  0.60275515  0.55871585  0.45109165     0.93500
C12         C  0.60260313  0.44868094  0.05407644     0.92600
C13         C  0.66729786  0.50302767  0.50233761     0.84700
C14         C  0.53315301  0.50439430  0.00282092     0.91000
O15         O  0.42842590  0.58374321  0.47725835    -0.72700
O16         O  0.42685221  0.49927923  0.05554040    -0.73700
O17         O  0.47961520  0.54078899  0.01690015    -0.62300
O18         O  0.37750479  0.54197151  0.01646860    -0.70800
O19         O  0.37728865  0.46844278  0.48964604    -0.70300
O20         O  0.47937833  0.46870143  0.48891025    -0.61600
O21         O  0.42821634  0.42614493  0.02846951    -0.74100
O22         O  0.42667242  0.51041583  0.45040615    -0.72900
Cu23       Cu  0.42832997  0.54398901  0.01753772     1.04600
Cu24       Cu  0.42810131  0.46592226  0.48837444     1.04300
C25         C  0.42611533  0.55985820  0.45140282     0.93500
C26         C  0.42612742  0.44982468  0.05437975     0.92600
C27         C  0.49565101  0.50465229  0.00288978     0.84700
C28         C  0.36150386  0.50527200  0.00309277     0.91000
C29         C  0.40835360  0.59972834  0.36758214     0.86700
C30         C  0.39597157  0.65428561  0.37602516    -0.53600
C31         C  0.41261404  0.67587697  0.40060284     0.09600
C32         C  0.43987870  0.64053743  0.41497163     0.20600
C33         C  0.44683629  0.60583758  0.36278830    -0.54300
C34         C  0.46304780  0.62707475  0.38762240     0.09700
C35         C  0.40523088  0.56804942  0.39744590    -0.53800
C36         C  0.42207741  0.58882224  0.42218296     0.10300
H37         H  0.37744321  0.67537252  0.36230570     0.14800
H38         H  0.45355698  0.65778394  0.43501112     0.00500
H39         H  0.46044001  0.59369881  0.34218340     0.15100
H40         H  0.39202742  0.53116018  0.39855231     0.14900
C41         C  0.40835718  0.40756059  0.13777296     0.86700
C42         C  0.39580970  0.35335028  0.12858614    -0.53600
C43         C  0.41244603  0.33258097  0.10374496     0.09600
C44         C  0.43981312  0.36827718  0.08993758     0.20600
C45         C  0.44680636  0.40097440  0.14257299    -0.54300
C46         C  0.46295847  0.38049613  0.11748884     0.09700
C47         C  0.40540402  0.44037307  0.10833303    -0.53800
C48         C  0.42221428  0.42035629  0.08339203     0.10300
H49         H  0.37721222  0.33185312  0.14199603     0.14800
H50         H  0.45347184  0.35168354  0.06969754     0.00500
H51         H  0.46040528  0.41213582  0.16338773     0.15100
H52         H  0.39226581  0.47733085  0.10763890     0.14900
N53         N  0.34786047  0.46126738  0.19428135    -0.27100
N54         N  0.37651096  0.46858597  0.20951172    -0.35000
C55         C  0.40237757  0.45054042  0.19237539     0.01200
C56         C  0.38944053  0.43088820  0.16484859     0.07300
C57         C  0.35475540  0.43865165  0.16688169    -0.05800
H58         H  0.42858292  0.45228501  0.19956689     0.07900
H59         H  0.33591065  0.42819713  0.14974735     0.09100
Cu60       Cu  0.37923504  0.50294757  0.25289505     0.44200
Cu61       Cu  0.30095431  0.48020104  0.21263223     0.42000
Cu62       Cu  0.30075468  0.52534855  0.29333462     0.43900
N63         N  0.37638561  0.53753231  0.29620890    -0.34500
N64         N  0.34775185  0.54486438  0.31146013    -0.28700
C65         C  0.35470196  0.56779642  0.33876737    -0.04800
C66         C  0.38939326  0.57568702  0.34072675     0.07400
C67         C  0.40227022  0.55584250  0.31323892     0.01200
H68         H  0.33588866  0.57840146  0.35588550     0.08800
H69         H  0.42844475  0.55426693  0.30595583     0.07900
N70         N  0.25747532  0.50914107  0.26777050    -0.35900
N71         N  0.25758773  0.49508033  0.23822696    -0.28100
C72         C  0.22541331  0.49037986  0.22832892    -0.03300
C73         C  0.20424162  0.50140397  0.25289149     0.05300
C74         C  0.22520033  0.51303298  0.27754478     0.03400
H75         H  0.21803907  0.47913504  0.20510285     0.08500
H76         H  0.21760632  0.52435819  0.30069334     0.07300
C77         C  0.40855087  0.90756065  0.36540406     0.86700
C78         C  0.40562551  0.94032453  0.39486636    -0.53600
C79         C  0.42239075  0.92020710  0.41981753     0.09600
C80         C  0.43994373  0.86810884  0.41324770     0.20600
C81         C  0.44699856  0.90088823  0.36063341    -0.54300
C82         C  0.46312027  0.88032416  0.38572240     0.09700
C83         C  0.39594125  0.85337041  0.37455552    -0.53800
C84         C  0.41254376  0.83251668  0.39939616     0.10300
H85         H  0.39251668  0.97730505  0.39557551     0.14800
H86         H  0.45357084  0.85144113  0.43349016     0.00500
H87         H  0.46061926  0.91209714  0.33984425     0.15100
H88         H  0.37732592  0.83194201  0.36112034     0.14900
C89         C  0.40815479  0.09985019  0.13557694     0.86700
C90         C  0.40499519  0.06810411  0.10574398    -0.53600
C91         C  0.42186635  0.08876821  0.08099876     0.09600
C92         C  0.43970714  0.14047988  0.08816305     0.20600
C93         C  0.44664077  0.10589824  0.14037639    -0.54300
C94         C  0.46286553  0.12703762  0.11553044     0.09700
C95         C  0.39581728  0.15441508  0.12708692    -0.53800
C96         C  0.41247828  0.17592242  0.10249589     0.10300
H97         H  0.39177221  0.03122763  0.10467207     0.14800
H98         H  0.45340085  0.15764827  0.06811285     0.00500
H99         H  0.46023849  0.09381991  0.16100289     0.15100
H100        H  0.37731948  0.17557426  0.14079233     0.14900
N101        N  0.34762115  0.04483949  0.19166871    -0.27100
N102        N  0.37628536  0.03729335  0.20684762    -0.35000
C103        C  0.40213760  0.05573694  0.18984378     0.01200
C104        C  0.38921089  0.07585944  0.16244341     0.07300
C105        C  0.35452059  0.06802605  0.16443042    -0.05800
H106        H  0.42833117  0.05397275  0.19706205     0.07900
H107        H  0.33567925  0.07877058  0.14736126     0.09100
Cu108      Cu  0.37928716  0.00221945  0.25002078     0.44200
Cu109      Cu  0.30066171  0.02518168  0.20975448     0.42000
Cu110      Cu  0.30112007  0.98035875  0.29051247     0.43900
N111        N  0.37667447  0.96828193  0.29353776    -0.34500
N112        N  0.34804941  0.96130599  0.30885508    -0.28700
C113        C  0.35496803  0.93890441  0.33631914    -0.04800
C114        C  0.38964153  0.93094257  0.33831736     0.07400
C115        C  0.40254855  0.95025168  0.31069175     0.01200
H116        H  0.33614222  0.92869377  0.35351661     0.08800
H117        H  0.42873534  0.95170851  0.30342964     0.07900
N118        N  0.25765307  0.99502696  0.26495301    -0.35900
N119        N  0.25747180  0.00889090  0.23537572    -0.28100
C120        C  0.22518205  0.01260756  0.22561265    -0.03300
C121        C  0.20427003  0.00109720  0.25030729     0.05300
C122        C  0.22549295  0.99030729  0.27488698     0.03400
H123        H  0.21754449  0.02376211  0.20244259     0.08500
H124        H  0.21816326  0.97919438  0.29814520     0.07300
O125        O  0.60194547  0.00898749  0.05353391    -0.72700
O126        O  0.60030139  0.92464036  0.47536487    -0.73700
O127        O  0.65128208  0.96632805  0.01448871    -0.62300
O128        O  0.54914806  0.96777976  0.01482446    -0.70800
O129        O  0.54947590  0.03986463  0.48683133    -0.70300
O130        O  0.65157826  0.03985593  0.48766402    -0.61600
O131        O  0.60216672  0.99784906  0.44839355    -0.74100
O132        O  0.60068797  0.08223073  0.02656661    -0.72900
Cu133      Cu  0.60043737  0.96441104  0.01554188     1.04600
Cu134      Cu  0.60076811  0.04247379  0.48637384     1.04300
C135        C  0.60274463  0.05843033  0.05245599     0.93500
C136        C  0.60263688  0.94839465  0.44948239     0.92600
C137        C  0.66732606  0.00299434  0.00111964     0.84700
C138        C  0.53315434  0.00394072  0.00078042     0.91000
O139        O  0.37755732  0.04180838  0.48660591    -0.72700
O140        O  0.47967043  0.04037107  0.48658417    -0.73700
O141        O  0.42703859  0.99903753  0.44773083    -0.62300
O142        O  0.42835624  0.08351083  0.02596478    -0.70800
O143        O  0.42646028  0.01023873  0.05286646    -0.70300
O144        O  0.42823334  0.92587879  0.47478718    -0.61600
O145        O  0.47930395  0.96828988  0.01458026    -0.74100
O146        O  0.37718570  0.96831182  0.01346071    -0.72900
Cu147      Cu  0.42839340  0.04371367  0.48572774     1.04600
Cu148      Cu  0.42800086  0.96566637  0.01490968     1.04300
C149        C  0.36147598  0.00517483  0.99996276     0.93500
C150        C  0.49564476  0.00421431  0.00064804     0.92600
C151        C  0.42626148  0.94959009  0.44887154     0.84700
C152        C  0.42594225  0.05968759  0.05182827     0.91000
C153        C  0.62049593  0.90703861  0.36593929     0.86700
C154        C  0.63303092  0.85273983  0.37488957    -0.53600
C155        C  0.61635933  0.83162838  0.39961404     0.09600
C156        C  0.58896404  0.86712827  0.41357012     0.20600
C157        C  0.58206132  0.90050866  0.36107732    -0.54300
C158        C  0.56585557  0.87973306  0.38603756     0.09700
C159        C  0.62342435  0.93945862  0.39553415    -0.53800
C160        C  0.60658875  0.91912468  0.42038490     0.10300
H161        H  0.65166183  0.83145379  0.36140997     0.14800
H162        H  0.57526966  0.85026995  0.43371518     0.00500
H163        H  0.56847616  0.91203550  0.34033055     0.15100
H164        H  0.63656308  0.97642042  0.39639331     0.14900
C165        C  0.62031819  0.09932514  0.13613047     0.86700
C166        C  0.63271949  0.15378394  0.12742207    -0.53600
C167        C  0.61613588  0.17499524  0.10269871     0.09600
C168        C  0.58891582  0.13942978  0.08847860     0.20600
C169        C  0.58181644  0.10549663  0.14082854    -0.54300
C170        C  0.56568108  0.12639461  0.11584049     0.09700
C171        C  0.62349770  0.06719931  0.10644317    -0.53800
C172        C  0.60670297  0.08761715  0.08158523     0.10300
H173        H  0.65119171  0.17511383  0.14107985     0.14800
H174        H  0.57529401  0.15638125  0.06831908     0.00500
H175        H  0.56818116  0.09376588  0.16150612     0.15100
H176        H  0.63670563  0.03031296  0.10553727     0.14900
N177        N  0.68093630  0.96186302  0.30973298    -0.27100
N178        N  0.65232770  0.96856438  0.29433303    -0.35000
C179        C  0.62649993  0.95006115  0.31134681     0.01200
C180        C  0.63940822  0.93072622  0.33896387     0.07300
C181        C  0.67404231  0.93913578  0.33710486    -0.05800
H182        H  0.60033990  0.95123245  0.30398328     0.07900
H183        H  0.69285469  0.92908758  0.35435216     0.09100
Cu184      Cu  0.64947714  0.00272270  0.25089447     0.44200
Cu185      Cu  0.72783962  0.98178268  0.29171726     0.42000
Cu186      Cu  0.72790794  0.02697283  0.21105419     0.43900
N187        N  0.65223683  0.03764353  0.20767279    -0.34500
N188        N  0.68092046  0.04561306  0.19261618    -0.28700
C189        C  0.67399356  0.06846547  0.16528415    -0.04800
C190        C  0.63925815  0.07569580  0.16312006     0.07400
C191        C  0.62633047  0.05551186  0.19050312     0.01200
H192        H  0.69284886  0.07947012  0.14829053     0.08800
H193        H  0.60010508  0.05332325  0.19758105     0.07900
N194        N  0.77122881  0.01126022  0.23664929    -0.35900
N195        N  0.77118928  0.99720606  0.26619408    -0.28100
C196        C  0.80339594  0.99252040  0.27601711    -0.03300
C197        C  0.82450131  0.00356172  0.25139666     0.05300
C198        C  0.80347206  0.01515402  0.22679616     0.03400
H199        H  0.81083514  0.98107198  0.29918967     0.08500
H200        H  0.81099736  0.02626677  0.20359026     0.07300
C201        C  0.62047265  0.59882244  0.36733379     0.86700
C202        C  0.62360743  0.56704285  0.39715182    -0.53600
C203        C  0.60683033  0.58776522  0.42191853     0.09600
C204        C  0.58911213  0.63956416  0.41480410     0.20600
C205        C  0.58198134  0.60504952  0.36258890    -0.54300
C206        C  0.56586531  0.62629174  0.38747645     0.09700
C207        C  0.63294200  0.65335188  0.37581643    -0.53800
C208        C  0.61637959  0.67490297  0.40044354     0.10300
H209        H  0.63674731  0.53010847  0.39820366     0.14800
H210        H  0.57550665  0.65677526  0.43488688     0.00500
H211        H  0.56833700  0.59310818  0.34195477     0.15100
H212        H  0.65145166  0.67445831  0.36208360     0.14900
C213        C  0.62037766  0.40656685  0.13753665     0.86700
C214        C  0.62333757  0.43931168  0.10806011    -0.53600
C215        C  0.60646045  0.41928003  0.08313520     0.09600
C216        C  0.58875952  0.36728879  0.08975784     0.20600
C217        C  0.58193474  0.40011755  0.14237486    -0.54300
C218        C  0.56568805  0.37968351  0.11733319     0.09700
C219        C  0.63282406  0.35232883  0.12837075    -0.53800
C220        C  0.61610882  0.33155896  0.10356543     0.10300
H221        H  0.63655158  0.47621649  0.10732662     0.14800
H222        H  0.57502828  0.35068738  0.06955227     0.00500
H223        H  0.56837271  0.41146050  0.16316425     0.15100
H224        H  0.65142755  0.33082148  0.14176452     0.14900
N225        N  0.68103446  0.54421495  0.31114726    -0.27100
N226        N  0.65235417  0.53625019  0.29606651    -0.35000
C227        C  0.62645861  0.55438075  0.31314117     0.01200
C228        C  0.63938800  0.57476743  0.34047274     0.07300
C229        C  0.67410860  0.56733750  0.33839305    -0.05800
H230        H  0.60024273  0.55231647  0.30600984     0.07900
H231        H  0.69296356  0.57847172  0.35536315     0.09100
Cu232      Cu  0.64952362  0.50127890  0.25285972     0.44200
Cu233      Cu  0.72807556  0.52560565  0.29281168     0.42000
Cu234      Cu  0.72773062  0.48057467  0.21209791     0.43900
N235        N  0.65228590  0.46720805  0.20939379    -0.34500
N236        N  0.68088756  0.46057001  0.19399239    -0.28700
C237        C  0.67398051  0.43811618  0.16653903    -0.04800
C238        C  0.63933295  0.42984043  0.16462437     0.07400
C239        C  0.62644243  0.44892656  0.19230673     0.01200
H240        H  0.69278291  0.42824549  0.14925347     0.08800
H241        H  0.60027914  0.45015922  0.19964467     0.07900
N242        N  0.77113238  0.49660083  0.23741142    -0.35900
N243        N  0.77132305  0.51058558  0.26696730    -0.28100
C244        C  0.80362661  0.51490300  0.27661042    -0.03300
C245        C  0.82451860  0.50368198  0.25185201     0.05300
C246        C  0.80327850  0.49238489  0.22737271     0.03400
H247        H  0.81128300  0.52596921  0.29979143     0.08500
H248        H  0.81058913  0.48099409  0.20415974     0.07300
O249        O  0.10225634  0.49601350  0.19976046    -0.72700
O250        O  0.10048446  0.58037679  0.27790061    -0.73700
O251        O  0.15150846  0.53818301  0.23916041    -0.62300
O252        O  0.04942841  0.53784701  0.23806225    -0.70800
O253        O  0.04914437  0.46576424  0.26605979    -0.70300
O254        O  0.15126529  0.46465163  0.26598391    -0.61600
O255        O  0.10179459  0.50716557  0.30489897    -0.74100
O256        O  0.10043709  0.42276830  0.22669578    -0.72900
Cu257      Cu  0.10070938  0.54062177  0.23772924     1.04600
Cu258      Cu  0.10042691  0.46255766  0.26689752     1.04300
C259        C  0.10277348  0.44655930  0.20082268     0.93500
C260        C  0.10255681  0.55660968  0.30379845     0.92600
C261        C  0.16727973  0.50141342  0.25268232     0.84700
C262        C  0.03313193  0.50186389  0.25197860     0.91000
O263        O  0.92666863  0.50804679  0.30422340    -0.72700
O264        O  0.92809286  0.42371781  0.22609446    -0.73700
O265        O  0.97932708  0.46608652  0.26575885    -0.62300
O266        O  0.87722638  0.46622754  0.26504016    -0.70800
O267        O  0.87751995  0.53974473  0.23820319    -0.70300
O268        O  0.97962281  0.53818338  0.23777404    -0.61600
O269        O  0.92682666  0.49692192  0.19908936    -0.74100
O270        O  0.92849790  0.58130768  0.27729901    -0.72900
Cu271      Cu  0.92803711  0.46349311  0.26625629     1.04600
Cu272      Cu  0.92834983  0.54156050  0.23708928     1.04300
C273        C  0.92614728  0.55749240  0.30316584     0.93500
C274        C  0.92606349  0.44747138  0.20019328     0.92600
C275        C  0.99562935  0.50204031  0.25181866     0.84700
C276        C  0.86148017  0.50319149  0.25168163     0.91000
C277        C  0.90820209  0.59826287  0.38678772     0.86700
C278        C  0.90519907  0.56615639  0.35707549    -0.53600
C279        C  0.92210847  0.58662983  0.33229848     0.09600
C280        C  0.93983550  0.63846453  0.33929140     0.20600
C281        C  0.94665738  0.60454145  0.39166792    -0.54300
C282        C  0.96291228  0.62547330  0.36678021     0.09700
C283        C  0.89579733  0.65270315  0.37802625    -0.53800
C284        C  0.91250258  0.67394666  0.35336670     0.10300
H285        H  0.89200115  0.52925239  0.35609582     0.14800
H286        H  0.95356901  0.65545009  0.31920688     0.00500
H287        H  0.96021371  0.59279897  0.41238668     0.15100
H288        H  0.87719351  0.67394752  0.39156086     0.14900
C289        C  0.90852768  0.40610230  0.11659513     0.86700
C290        C  0.90543410  0.43848958  0.14618480    -0.53600
C291        C  0.92217736  0.41818208  0.17109409     0.09600
C292        C  0.93987292  0.36623464  0.16433985     0.20600
C293        C  0.94700747  0.39971406  0.11188932    -0.54300
C294        C  0.96311442  0.37893959  0.13692693     0.09700
C295        C  0.89601718  0.35176064  0.12546756    -0.53800
C296        C  0.91259065  0.33065800  0.15023633     0.10300
H297        H  0.89227632  0.47542409  0.14699948     0.14800
H298        H  0.95347491  0.34938908  0.18454231     0.00500
H299        H  0.96065714  0.41126973  0.09118428     0.15100
H300        H  0.87750846  0.33040084  0.11186859     0.14900
N301        N  0.84798778  0.45998828  0.06015998    -0.27100
N302        N  0.87660512  0.46706799  0.04484395    -0.35000
C303        C  0.90249864  0.44903410  0.06196724     0.01200
C304        C  0.88961430  0.42963026  0.08957060     0.07300
C305        C  0.85493407  0.43750995  0.08759181    -0.05800
H306        H  0.92867947  0.45052574  0.05469015     0.07900
H307        H  0.83612451  0.42721402  0.10478610     0.09100
Cu308      Cu  0.87925893  0.50112758  0.50137606     0.44200
Cu309      Cu  0.80102853  0.47919735  0.04195838     0.42000
Cu310      Cu  0.80071893  0.52417513  0.46123104     0.43900
N311        N  0.87632242  0.53601358  0.45815440    -0.34500
N312        N  0.84765528  0.54354084  0.44298294    -0.28700
C313        C  0.85454851  0.56662468  0.41571004    -0.04800
C314        C  0.88924136  0.57443567  0.41370149     0.07400
C315        C  0.90217467  0.55436520  0.44111622     0.01200
H316        H  0.83570000  0.57735132  0.39864355     0.08800
H317        H  0.92837271  0.55256145  0.44831759     0.07900
N318        N  0.75747925  0.50893980  0.48701400    -0.35900
N319        N  0.75761566  0.49499869  0.01657836    -0.28100
C320        C  0.72544349  0.49114020  0.02661795    -0.03300
C321        C  0.70425894  0.50263309  0.50212404     0.05300
C322        C  0.72520385  0.51357332  0.47736427     0.03400
H323        H  0.71807315  0.48006132  0.04987138     0.08500
H324        H  0.71760792  0.52487845  0.45420909     0.07300
C325        C  0.90833645  0.90633396  0.38645769     0.86700
C326        C  0.89582114  0.85191655  0.37776017    -0.53600
C327        C  0.91237434  0.83061330  0.35304631     0.09600
C328        C  0.93965042  0.86605924  0.33882128     0.20600
C329        C  0.94682562  0.89999107  0.39116034    -0.54300
C330        C  0.96291775  0.87901417  0.36618336     0.09700
C331        C  0.90521469  0.93845031  0.35676010    -0.53800
C332        C  0.92194842  0.91793502  0.33190827     0.10300
H333        H  0.87730851  0.83068177  0.39141823     0.14800
H334        H  0.95323686  0.84904373  0.31866744     0.00500
H335        H  0.96049995  0.91174369  0.41181548     0.15100
H336        H  0.89208160  0.97539890  0.35584019     0.14900
C337        C  0.90844210  0.09864653  0.11626471     0.86700
C338        C  0.89602633  0.15299728  0.12520381    -0.53600
C339        C  0.91272439  0.17402343  0.14993615     0.09600
C340        C  0.94005454  0.13840418  0.16390581     0.20600
C341        C  0.94688934  0.10499075  0.11141387    -0.54300
C342        C  0.96313283  0.12569681  0.13638035     0.09700
C343        C  0.90544203  0.06623801  0.14586029    -0.53800
C344        C  0.92233460  0.08648156  0.17071497     0.10300
H345        H  0.87744140  0.17437585  0.11171435     0.14800
H346        H  0.95378297  0.15520553  0.18405300     0.00500
H347        H  0.96044055  0.09347518  0.09065137     0.15100
H348        H  0.89222586  0.02934091  0.14671342     0.14900
N349        N  0.84782895  0.04462408  0.05991735    -0.27100
N350        N  0.87647434  0.03709314  0.04472026    -0.35000
C351        C  0.90236552  0.05521016  0.06181051     0.01200
C352        C  0.88946907  0.07510888  0.08927717     0.07300
C353        C  0.85477063  0.06745134  0.08725151    -0.05800
H354        H  0.92856290  0.05333489  0.05462158     0.07900
H355        H  0.83594916  0.07809588  0.10435339     0.09100
Cu356      Cu  0.87935078  0.00236608  0.00144646     0.44200
Cu357      Cu  0.80083147  0.02554214  0.04173287     0.42000
Cu358      Cu  0.80102594  0.98036579  0.46107072     0.43900
N359        N  0.87658694  0.96803474  0.45805388    -0.34500
N360        N  0.84792875  0.96089762  0.44280104    -0.28700
C361        C  0.85479667  0.93812995  0.41543550    -0.04800
C362        C  0.88946960  0.93013366  0.41343296     0.07400
C363        C  0.90242393  0.94976537  0.44095847     0.01200
H364        H  0.83593971  0.92771525  0.39830376     0.08800
H365        H  0.92861753  0.95124066  0.44820701     0.07900
N366        N  0.75762699  0.99585127  0.48657084    -0.35900
N367        N  0.75755278  0.00990694  0.01611457    -0.28100
C368        C  0.72530274  0.01416419  0.02588559    -0.03300
C369        C  0.70429394  0.00280153  0.00123447     0.05300
C370        C  0.72542373  0.99152568  0.47666719     0.03400
H371        H  0.71776361  0.02549775  0.04904791     0.08500
H372        H  0.71799722  0.98029606  0.45345263     0.07300
O373        O  0.04940444  0.03720420  0.26491512    -0.72700
O374        O  0.15148998  0.03776843  0.26400588    -0.73700
O375        O  0.10048081  0.07990135  0.22521075    -0.62300
O376        O  0.10219395  0.99560681  0.30329571    -0.70800
O377        O  0.10047953  0.92229952  0.27641702    -0.70300
O378        O  0.10188060  0.00675915  0.19815541    -0.61600
O379        O  0.15132697  0.96425150  0.23717330    -0.74100
O380        O  0.04918258  0.96511958  0.23692453    -0.72900
Cu381      Cu  0.10067812  0.04012364  0.26534213     1.04600
Cu382      Cu  0.10048838  0.96206429  0.23617423     1.04300
C383        C  0.03313636  0.00119356  0.25098955     0.93500
C384        C  0.16730366  0.00102271  0.25050797     0.92600
C385        C  0.10260814  0.05621423  0.19929900     0.84700
C386        C  0.10275260  0.94616492  0.30227569     0.91000
O387        O  0.92793182  0.92329969  0.27688554    -0.72700
O388        O  0.92664776  0.00772794  0.19871932    -0.73700
O389        O  0.97927526  0.96546697  0.23719028    -0.62300
O390        O  0.87712205  0.96602318  0.23795310    -0.70800
O391        O  0.87759826  0.03952327  0.26479958    -0.70300
O392        O  0.97966721  0.03755212  0.26517922    -0.61600
O393        O  0.92863545  0.08091897  0.22569729    -0.74100
O394        O  0.92683089  0.99654012  0.30385669    -0.72900
Cu395      Cu  0.92794715  0.96309146  0.23669968     1.04600
Cu396      Cu  0.92842064  0.04114121  0.26587549     1.04300
C397        C  0.92593908  0.94710087  0.30277627     0.93500
C398        C  0.92625433  0.05718314  0.19981157     0.92600
C399        C  0.99562806  0.00137805  0.25113297     0.84700
C400        C  0.86146575  0.00300460  0.25138013     0.91000
C401        C  0.12031211  0.59810478  0.38736438     0.86700
C402        C  0.13276997  0.65244463  0.37841143    -0.53600
C403        C  0.11614237  0.67342278  0.35363526     0.09600
C404        C  0.08883012  0.63780995  0.33964096     0.20600
C405        C  0.08184156  0.60446340  0.39213479    -0.54300
C406        C  0.06567307  0.62515704  0.36711212     0.09700
C407        C  0.12335059  0.56564437  0.35778454    -0.53800
C408        C  0.10651521  0.58588160  0.33289335     0.10300
H409        H  0.15133569  0.67385142  0.39191758     0.14800
H410        H  0.07516563  0.65459610  0.31945527     0.00500
H411        H  0.06823923  0.59297309  0.41287853     0.15100
H412        H  0.13653125  0.52873048  0.35696759     0.14900
C413        C  0.12056152  0.40587870  0.11716981     0.86700
C414        C  0.13302593  0.35144835  0.12586186    -0.53600
C415        C  0.11637222  0.33007861  0.15050974     0.09600
C416        C  0.08905366  0.36551572  0.16468305     0.19800
C417        C  0.08210039  0.39955012  0.11234214    -0.54300
C418        C  0.06590043  0.37854227  0.13724349     0.09700
C419        C  0.12359896  0.43792685  0.14689194    -0.53800
C420        C  0.10677096  0.41738796  0.17168586     0.10300
H421        H  0.15158201  0.33025601  0.11224215     0.14800
H422        H  0.07537715  0.34846790  0.18478037     0.00500
H423        H  0.06850297  0.41135765  0.09165851     0.15100
H424        H  0.13676359  0.47485979  0.14786757     0.14900
N425        N  0.18093909  0.54494398  0.44401038    -0.27100
N426        N  0.15227925  0.53729830  0.45916180    -0.35000
C427        C  0.12636435  0.55497108  0.44193303     0.01200
C428        C  0.13926651  0.57469808  0.41441608     0.07300
C429        C  0.17399230  0.56738070  0.41656005    -0.05800
H430        H  0.10015317  0.55298407  0.44907382     0.07900
H431        H  0.19283288  0.57810725  0.39948917     0.09100
Cu432      Cu  0.14956862  0.50295053  0.00255420     0.44200
Cu433      Cu  0.22792315  0.52666451  0.46253325     0.42000
Cu434      Cu  0.22795080  0.48139208  0.04322237     0.43900
N435        N  0.15242147  0.46824721  0.04583781    -0.34500
N436        N  0.18104264  0.46119703  0.06116339    -0.28700
C437        C  0.17414164  0.43808949  0.08842140    -0.04800
C438        C  0.13948988  0.42980768  0.09027902     0.07400
C439        C  0.12658249  0.44959347  0.06278045     0.01200
H440        H  0.19295524  0.42773972  0.10560340     0.08800
H441        H  0.10041329  0.45098023  0.05545687     0.07900
N442        N  0.27125509  0.49780332  0.01782010    -0.35900
N443        N  0.27125030  0.51188096  0.48827834    -0.28100
C444        C  0.30347262  0.51651742  0.47849986    -0.03300
C445        C  0.32454226  0.50542883  0.00314386     0.05300
C446        C  0.30348198  0.49384796  0.02771479     0.03400
H447        H  0.31095053  0.52771589  0.45529582     0.08500
H448        H  0.31097277  0.48245372  0.05088301     0.07300
C449        C  0.12039238  0.90608800  0.38604933     0.86700
C450        C  0.12351759  0.93787253  0.35623496    -0.53600
C451        C  0.10671764  0.91715968  0.33146842     0.09600
C452        C  0.08891795  0.86542153  0.33859600     0.20600
C453        C  0.08190985  0.89991364  0.39082057    -0.54300
C454        C  0.06572724  0.87873918  0.36595074     0.09700
C455        C  0.13281100  0.85156413  0.37754139    -0.53800
C456        C  0.11617622  0.83005696  0.35292350     0.10300
H457        H  0.13671642  0.97477063  0.35517347     0.14800
H458        H  0.07526132  0.84824091  0.31852349     0.00500
H459        H  0.06828762  0.91195894  0.41143475     0.15100
H460        H  0.15134264  0.83044514  0.39123844     0.14900
C461        C  0.12047310  0.09834732  0.11585689     0.86700
C462        C  0.12342750  0.06559913  0.14533399    -0.53600
C463        C  0.10659130  0.08566132  0.17026289     0.09600
C464        C  0.08900548  0.13774043  0.16366130     0.20600
C465        C  0.08202347  0.10490666  0.11105372    -0.54300
C466        C  0.06586366  0.12542715  0.13612040     0.09700
C467        C  0.13300655  0.15257241  0.12499638    -0.53800
C468        C  0.11637888  0.17341031  0.14981297     0.10300
H469        H  0.13655752  0.02863712  0.14605208     0.14800
H470        H  0.07534142  0.15438861  0.18388189     0.00500
H471        H  0.06842742  0.09368469  0.09024879     0.15100
H472        H  0.15158794  0.17405015  0.11155539     0.14900
N473        N  0.18100024  0.04532164  0.05910808    -0.27100
N474        N  0.15229269  0.03735775  0.04408222    -0.35000
C475        C  0.12641094  0.05502460  0.06134261     0.01200
C476        C  0.13938740  0.07506046  0.08875541     0.07300
C477        C  0.17411981  0.06793081  0.08651699    -0.05800
H478        H  0.10016774  0.05273750  0.05432151     0.07900
H479        H  0.19300709  0.07886707  0.10350298     0.09100
Cu480      Cu  0.14949105  0.00261400  0.00081242     0.44200
Cu481      Cu  0.22794431  0.02715209  0.04049170     0.42000
Cu482      Cu  0.22780895  0.98226812  0.45977149     0.43900
N483        N  0.15230461  0.96836369  0.45740374    -0.34500
N484        N  0.18088290  0.96176260  0.44194890    -0.28700
C485        C  0.17395204  0.93877776  0.41465802    -0.04800
C486        C  0.13932636  0.93015752  0.41289991     0.07400
C487        C  0.12646591  0.94958638  0.44049974     0.01200
H488        H  0.19273036  0.92872622  0.39738797     0.08800
H489        H  0.10033369  0.95055884  0.44794588     0.07900
N490        N  0.27119295  0.99836975  0.48516646    -0.35900
N491        N  0.27123274  0.01228195  0.01473466    -0.28100
C492        C  0.30346756  0.01662181  0.02453850    -0.03300
C493        C  0.32450868  0.00550771  0.99988593     0.05300
C494        C  0.30341117  0.99423243  0.47527895     0.03400
H495        H  0.31097614  0.02764100  0.04776756     0.08500
H496        H  0.31086864  0.98290715  0.45209336     0.07300
C497        C  0.11844168  0.27508255  0.15674357    -0.13100
C498        C  0.11846524  0.22825253  0.15651631    -0.14600
C499        C  0.11827635  0.72825432  0.34699075    -0.13100
C500        C  0.11827249  0.77506858  0.34676223    -0.14600
C501        C  0.99929080  0.13087816  0.13739159    -0.13100
C502        C  0.02972358  0.13077246  0.13726795    -0.14600
C503        C  0.02953861  0.87363795  0.36485757    -0.13100
C504        C  0.99908849  0.87374516  0.36496266    -0.14600
C505        C  0.02971915  0.37342556  0.13829011    -0.13100
C506        C  0.99927366  0.37359276  0.13814924    -0.14600
C507        C  0.91056914  0.27571489  0.15662152    -0.13100
C508        C  0.91061915  0.22889004  0.15652187    -0.14600
C509        C  0.99908320  0.63058325  0.36579443    -0.13100
C510        C  0.02952094  0.63044604  0.36594336    -0.14600
C511        C  0.91033779  0.72883110  0.34686977    -0.13100
C512        C  0.91029104  0.77565156  0.34676031    -0.14600
C513        C  0.61815993  0.22996542  0.09644368    -0.13100
C514        C  0.61818482  0.27678041  0.09674417    -0.14600
C515        C  0.61852110  0.77676854  0.40623707    -0.13100
C516        C  0.61849574  0.72994076  0.40652067    -0.14600
C517        C  0.49906406  0.13193495  0.11447468    -0.13100
C518        C  0.52951226  0.13167892  0.11462579    -0.14600
C519        C  0.49925538  0.87479832  0.38690485    -0.13100
C520        C  0.52969173  0.87456320  0.38705945    -0.14600
C521        C  0.49908883  0.37498019  0.11636091    -0.13100
C522        C  0.52952128  0.37467843  0.11626900    -0.14600
C523        C  0.41043627  0.23097207  0.09645505    -0.13100
C524        C  0.41035499  0.27779389  0.09689553    -0.14600
C525        C  0.49924859  0.63199466  0.38871205    -0.13100
C526        C  0.52969917  0.63170173  0.38862729    -0.14600
C527        C  0.41049408  0.73091259  0.40663243    -0.13100
C528        C  0.41040004  0.77772938  0.40620779    -0.14600
O529        O  0.60075589  0.58256452  0.97696984    -0.72700
O530        O  0.60223342  0.49813710  0.55519110    -0.73700
O531        O  0.65165336  0.53995464  0.51582995    -0.62300
O532        O  0.54950455  0.54029949  0.51677261    -0.70800
O533        O  0.54910952  0.46821817  0.98877834    -0.70300
O534        O  0.65115694  0.46643219  0.98900434    -0.61600
O535        O  0.60020347  0.42497592  0.52818500    -0.74100
O536        O  0.60185051  0.50927712  0.95004607    -0.72900
Cu537      Cu  0.60083200  0.54277813  0.51718833     1.04600
Cu538      Cu  0.60034268  0.46471761  0.98802229     1.04300
C539        C  0.60275509  0.55871589  0.95109162     0.93500
C540        C  0.60260311  0.44868084  0.55407643     0.92600
C541        C  0.66729786  0.50302767  0.00233752     0.84700
C542        C  0.53315292  0.50439439  0.50282088     0.91000
O543        O  0.42842584  0.58374325  0.97725839    -0.72700
O544        O  0.42685222  0.49927932  0.55554043    -0.73700
O545        O  0.47961510  0.54078899  0.51690018    -0.62300
O546        O  0.37750465  0.54197167  0.51646850    -0.70800
O547        O  0.37728865  0.46844274  0.98964603    -0.70300
O548        O  0.47937837  0.46870133  0.98891031    -0.61600
O549        O  0.42821629  0.42614508  0.52846947    -0.74100
O550        O  0.42667248  0.51041586  0.95040617    -0.72900
Cu551      Cu  0.42832990  0.54398913  0.51753773     1.04600
Cu552      Cu  0.42810132  0.46592210  0.98837441     1.04300
C553        C  0.42611531  0.55985824  0.95140284     0.93500
C554        C  0.42612742  0.44982476  0.55437973     0.92600
C555        C  0.49565093  0.50465241  0.50288973     0.84700
C556        C  0.36150380  0.50527205  0.50309272     0.91000
C557        C  0.40835364  0.59972831  0.86758212     0.86700
C558        C  0.39597165  0.65428560  0.87602516    -0.53600
C559        C  0.41261407  0.67587703  0.90060283     0.09600
C560        C  0.43987869  0.64053746  0.91497165     0.20600
C561        C  0.44683635  0.60583752  0.86278832    -0.54300
C562        C  0.46304780  0.62707473  0.88762244     0.09700
C563        C  0.40523090  0.56804935  0.89744589    -0.53800
C564        C  0.42207740  0.58882226  0.92218296     0.10300
H565        H  0.37744324  0.67537258  0.86230560     0.14800
H566        H  0.45355696  0.65778393  0.93501113     0.00500
H567        H  0.46044012  0.59369868  0.84218351     0.15100
H568        H  0.39202752  0.53116015  0.89855227     0.14900
C569        C  0.40835712  0.40756071  0.63777294     0.86700
C570        C  0.39580967  0.35335040  0.62858613    -0.53600
C571        C  0.41244600  0.33258108  0.60374497     0.09600
C572        C  0.43981310  0.36827723  0.58993759     0.20600
C573        C  0.44680629  0.40097452  0.64257301    -0.54300
C574        C  0.46295842  0.38049620  0.61748888     0.09700
C575        C  0.40540400  0.44037310  0.60833298    -0.53800
C576        C  0.42221426  0.42035633  0.58339200     0.10300
H577        H  0.37721218  0.33185316  0.64199608     0.14800
H578        H  0.45347184  0.35168356  0.56969756     0.00500
H579        H  0.46040512  0.41213602  0.66338771     0.15100
H580        H  0.39226578  0.47733109  0.60763880     0.14900
N581        N  0.34786050  0.46126759  0.69428138    -0.27100
N582        N  0.37651102  0.46858607  0.70951174    -0.35000
C583        C  0.40237754  0.45054037  0.69237541     0.01200
C584        C  0.38944050  0.43088832  0.66484858     0.07300
C585        C  0.35475539  0.43865187  0.66688173    -0.05800
H586        H  0.42858298  0.45228473  0.69956698     0.07900
H587        H  0.33591053  0.42819727  0.64974739     0.09100
Cu588      Cu  0.37923513  0.50294741  0.75289511     0.44200
Cu589      Cu  0.30095436  0.48020091  0.71263230     0.42000
Cu590      Cu  0.30075471  0.52534873  0.79333464     0.43900
N591        N  0.37638563  0.53753218  0.79620891    -0.34500
N592        N  0.34775188  0.54486442  0.81146010    -0.28700
C593        C  0.35470199  0.56779650  0.83876733    -0.04800
C594        C  0.38939328  0.57568707  0.84072671     0.07400
C595        C  0.40227027  0.55584239  0.81323891     0.01200
H596        H  0.33588869  0.57840145  0.85588549     0.08800
H597        H  0.42844473  0.55426670  0.80595586     0.07900
N598        N  0.25747532  0.50914123  0.76777052    -0.35900
N599        N  0.25758775  0.49508051  0.73822695    -0.28100
C600        C  0.22541334  0.49038003  0.72832892    -0.03300
C601        C  0.20424159  0.50140408  0.75289147     0.05300
C602        C  0.22520031  0.51303298  0.77754478     0.03400
H603        H  0.21803910  0.47913506  0.70510282     0.08500
H604        H  0.21760623  0.52435802  0.80069342     0.07300
C605        C  0.40855088  0.90756064  0.86540405     0.86700
C606        C  0.40562554  0.94032452  0.89486638    -0.53600
C607        C  0.42239079  0.92020709  0.91981755     0.09600
C608        C  0.43994374  0.86810883  0.91324769     0.20600
C609        C  0.44699857  0.90088815  0.86063337    -0.54300
C610        C  0.46312025  0.88032409  0.88572239     0.09700
C611        C  0.39594123  0.85337047  0.87455555    -0.53800
C612        C  0.41254373  0.83251674  0.89939619     0.10300
H613        H  0.39251667  0.97730497  0.89557558     0.14800
H614        H  0.45357084  0.85144106  0.93349010     0.00500
H615        H  0.46061924  0.91209703  0.83984430     0.15100
H616        H  0.37732586  0.83194208  0.86112041     0.14900
C617        C  0.40815477  0.09985009  0.63557689     0.86700
C618        C  0.40499517  0.06810394  0.60574393    -0.53600
C619        C  0.42186633  0.08876815  0.58099871     0.09600
C620        C  0.43970712  0.14047983  0.58816300     0.20600
C621        C  0.44664076  0.10589810  0.64037632    -0.54300
C622        C  0.46286552  0.12703755  0.61553040     0.09700
C623        C  0.39581727  0.15441499  0.62708687    -0.53800
C624        C  0.41247827  0.17592239  0.60249586     0.10300
H625        H  0.39177229  0.03122747  0.60467203     0.14800
H626        H  0.45340078  0.15764827  0.56811277     0.00500
H627        H  0.46023851  0.09381978  0.66100289     0.15100
H628        H  0.37731945  0.17557417  0.64079231     0.14900
N629        N  0.34762112  0.04483964  0.69166874    -0.27100
N630        N  0.37628536  0.03729334  0.70684759    -0.35000
C631        C  0.40213756  0.05573690  0.68984372     0.01200
C632        C  0.38921086  0.07585945  0.66244339     0.07300
C633        C  0.35452053  0.06802619  0.66443046    -0.05800
H634        H  0.42833122  0.05397272  0.69706198     0.07900
H635        H  0.33567915  0.07877066  0.64736133     0.09100
Cu636      Cu  0.37928701  0.00221963  0.75002083     0.44200
Cu637      Cu  0.30066178  0.02518186  0.70975454     0.42000
Cu638      Cu  0.30112012  0.98035896  0.79051252     0.43900
N639        N  0.37667441  0.96828187  0.79353772    -0.34500
N640        N  0.34804941  0.96130612  0.80885514    -0.28700
C641        C  0.35496809  0.93890454  0.83631920    -0.04800
C642        C  0.38964156  0.93094250  0.83831730     0.07400
C643        C  0.40254853  0.95025150  0.81069162     0.01200
H644        H  0.33614234  0.92869407  0.85351675     0.08800
H645        H  0.42873526  0.95170835  0.80342944     0.07900
N646        N  0.25765309  0.99502688  0.76495305    -0.35900
N647        N  0.25747185  0.00889082  0.73537576    -0.28100
C648        C  0.22518209  0.01260761  0.72561268    -0.03300
C649        C  0.20427002  0.00109719  0.75030730     0.05300
C650        C  0.22549294  0.99030732  0.77488703     0.03400
H651        H  0.21754459  0.02376225  0.70244265     0.08500
H652        H  0.21816323  0.97919451  0.79814523     0.07300
O653        O  0.60194548  0.00898746  0.55353396    -0.72700
O654        O  0.60030146  0.92464032  0.97536485    -0.73700
O655        O  0.65128195  0.96632826  0.51448876    -0.62300
O656        O  0.54914802  0.96777960  0.51482442    -0.70800
O657        O  0.54947592  0.03986480  0.98683136    -0.70300
O658        O  0.65157824  0.03985583  0.98766405    -0.61600
O659        O  0.60216654  0.99784906  0.94839354    -0.74100
O660        O  0.60068806  0.08223064  0.52656661    -0.72900
Cu661      Cu  0.60043730  0.96441113  0.51554188     1.04600
Cu662      Cu  0.60076806  0.04247388  0.98637384     1.04300
C663        C  0.60274471  0.05843028  0.55245601     0.93500
C664        C  0.60263679  0.94839464  0.94948238     0.92600
C665        C  0.66732599  0.00299446  0.50111969     0.84700
C666        C  0.53315430  0.00394054  0.50078038     0.91000
O667        O  0.37755740  0.04180828  0.98660596    -0.72700
O668        O  0.47967045  0.04037124  0.98658422    -0.73700
O669        O  0.42703869  0.99903752  0.94773086    -0.62300
O670        O  0.42835629  0.08351064  0.52596474    -0.70800
O671        O  0.42646035  0.01023863  0.55286648    -0.70300
O672        O  0.42823349  0.92587873  0.97478721    -0.61600
O673        O  0.47930385  0.96828971  0.51458018    -0.74100
O674        O  0.37718568  0.96831204  0.51346076    -0.72900
Cu675      Cu  0.42839344  0.04371376  0.98572778     1.04600
Cu676      Cu  0.42800079  0.96566642  0.51490966     1.04300
C677        C  0.36147593  0.00517494  0.49996276     0.93500
C678        C  0.49564471  0.00421413  0.50064799     0.92600
C679        C  0.42626158  0.94959007  0.94887157     0.84700
C680        C  0.42594230  0.05968747  0.55182825     0.91000
C681        C  0.62049594  0.90703862  0.86593934     0.86700
C682        C  0.63303099  0.85273990  0.87488960    -0.53600
C683        C  0.61635934  0.83162839  0.89961402     0.09600
C684        C  0.58896404  0.86712821  0.91357012     0.20600
C685        C  0.58206135  0.90050857  0.86107738    -0.54300
C686        C  0.56585557  0.87973292  0.88603757     0.09700
C687        C  0.62342434  0.93945864  0.89553421    -0.53800
C688        C  0.60658871  0.91912466  0.92038491     0.10300
H689        H  0.65166191  0.83145395  0.86140995     0.14800
H690        H  0.57526972  0.85026974  0.93371517     0.00500
H691        H  0.56847613  0.91203541  0.84033055     0.15100
H692        H  0.63656304  0.97642043  0.89639342     0.14900
C693        C  0.62031818  0.09932513  0.63613048     0.86700
C694        C  0.63271952  0.15378386  0.62742205    -0.53600
C695        C  0.61613590  0.17499516  0.60269870     0.09600
C696        C  0.58891583  0.13942970  0.58847857     0.20600
C697        C  0.58181644  0.10549673  0.64082854    -0.54300
C698        C  0.56568107  0.12639451  0.61584045     0.09700
C699        C  0.62349763  0.06719923  0.60644323    -0.53800
C700        C  0.60670299  0.08761710  0.58158525     0.10300
H701        H  0.65119178  0.17511369  0.64107981     0.14800
H702        H  0.57529407  0.15638109  0.56831904     0.00500
H703        H  0.56818112  0.09376617  0.66150615     0.15100
H704        H  0.63670547  0.03031282  0.60553740     0.14900
N705        N  0.68093622  0.96186306  0.80973305    -0.27100
N706        N  0.65232766  0.96856428  0.79433307    -0.35000
C707        C  0.62649985  0.95006099  0.81134681     0.01200
C708        C  0.63940820  0.93072616  0.83896390     0.07300
C709        C  0.67404227  0.93913575  0.83710492    -0.05800
H710        H  0.60033994  0.95123226  0.80398332     0.07900
H711        H  0.69285464  0.92908759  0.85435220     0.09100
Cu712      Cu  0.64947722  0.00272254  0.75089449     0.44200
Cu713      Cu  0.72783951  0.98178254  0.79171729     0.42000
Cu714      Cu  0.72790797  0.02697269  0.71105422     0.43900
N715        N  0.65223683  0.03764343  0.70767277    -0.34500
N716        N  0.68092047  0.04561318  0.69261625    -0.28700
C717        C  0.67399359  0.06846564  0.66528420    -0.04800
C718        C  0.63925815  0.07569577  0.66312006     0.07400
C719        C  0.62633041  0.05551163  0.69050307     0.01200
H720        H  0.69284887  0.07947037  0.64829068     0.08800
H721        H  0.60010513  0.05332286  0.69758092     0.07900
N722        N  0.77122880  0.01126003  0.73664936    -0.35900
N723        N  0.77118927  0.99720588  0.76619413    -0.28100
C724        C  0.80339595  0.99252023  0.77601714    -0.03300
C725        C  0.82450130  0.00356150  0.75139666     0.05300
C726        C  0.80347204  0.01515384  0.72679619     0.03400
H727        H  0.81083516  0.98107183  0.79918969     0.08500
H728        H  0.81099732  0.02626660  0.70359032     0.07300
C729        C  0.62047265  0.59882240  0.86733381     0.86700
C730        C  0.62360745  0.56704281  0.89715184    -0.53600
C731        C  0.60683028  0.58776520  0.92191850     0.09600
C732        C  0.58911209  0.63956419  0.91480411     0.20600
C733        C  0.58198134  0.60504947  0.86258897    -0.54300
C734        C  0.56586530  0.62629181  0.88747644     0.09700
C735        C  0.63294200  0.65335189  0.87581647    -0.53800
C736        C  0.61637955  0.67490300  0.90044356     0.10300
H737        H  0.63674735  0.53010854  0.89820368     0.14800
H738        H  0.57550663  0.65677522  0.93488683     0.00500
H739        H  0.56833692  0.59310801  0.84195478     0.15100
H740        H  0.65145167  0.67445823  0.86208373     0.14900
C741        C  0.62037762  0.40656675  0.63753668     0.86700
C742        C  0.62333748  0.43931157  0.60806015    -0.53600
C743        C  0.60646037  0.41927999  0.58313523     0.09600
C744        C  0.58875946  0.36728871  0.58975785     0.20600
C745        C  0.58193470  0.40011739  0.64237491    -0.54300
C746        C  0.56568800  0.37968346  0.61733320     0.09700
C747        C  0.63282404  0.35232874  0.62837077    -0.53800
C748        C  0.61610877  0.33155886  0.60356547     0.10300
H749        H  0.63655155  0.47621650  0.60732666     0.14800
H750        H  0.57502820  0.35068737  0.56955228     0.00500
H751        H  0.56837270  0.41146031  0.66316426     0.15100
H752        H  0.65142759  0.33082142  0.64176448     0.14900
N753        N  0.68103445  0.54421499  0.81114716    -0.27100
N754        N  0.65235413  0.53625035  0.79606640    -0.35000
C755        C  0.62645861  0.55438088  0.81314112     0.01200
C756        C  0.63938801  0.57476743  0.84047272     0.07300
C757        C  0.67410860  0.56733751  0.83839293    -0.05800
H758        H  0.60024267  0.55231659  0.80600980     0.07900
H759        H  0.69296365  0.57847174  0.85536306     0.09100
Cu760      Cu  0.64952349  0.50127873  0.75285974     0.44200
Cu761      Cu  0.72807562  0.52560548  0.79281171     0.42000
Cu762      Cu  0.72773067  0.48057484  0.71209791     0.43900
N763        N  0.65228593  0.46720805  0.70939379    -0.34500
N764        N  0.68088759  0.46057014  0.69399236    -0.28700
C765        C  0.67398051  0.43811616  0.66653902    -0.04800
C766        C  0.63933292  0.42984044  0.66462437     0.07400
C767        C  0.62644244  0.44892661  0.69230674     0.01200
H768        H  0.69278286  0.42824523  0.64925349     0.08800
H769        H  0.60027914  0.45015925  0.69964472     0.07900
N770        N  0.77113243  0.49660068  0.73741141    -0.35900
N771        N  0.77132307  0.51058548  0.76696724    -0.28100
C772        C  0.80362662  0.51490310  0.77661041    -0.03300
C773        C  0.82451860  0.50368199  0.75185200     0.05300
C774        C  0.80327858  0.49238480  0.72737265     0.03400
H775        H  0.81128289  0.52596929  0.79979131     0.08500
H776        H  0.81058923  0.48099411  0.70415983     0.07300
O777        O  0.10225622  0.49601349  0.69976046    -0.72700
O778        O  0.10048447  0.58037669  0.77790063    -0.73700
O779        O  0.15150834  0.53818289  0.73916046    -0.62300
O780        O  0.04942831  0.53784696  0.73806214    -0.70800
O781        O  0.04914440  0.46576432  0.76605984    -0.70300
O782        O  0.15126535  0.46465146  0.76598395    -0.61600
O783        O  0.10179469  0.50716543  0.80489899    -0.74100
O784        O  0.10043720  0.42276827  0.72669582    -0.72900
Cu785      Cu  0.10070927  0.54062177  0.73772923     1.04600
Cu786      Cu  0.10042698  0.46255757  0.76689757     1.04300
C787        C  0.10277349  0.44655927  0.70082271     0.93500
C788        C  0.10255687  0.55660954  0.80379846     0.92600
C789        C  0.16727970  0.50141333  0.75268233     0.84700
C790        C  0.03313189  0.50186383  0.75197856     0.91000
O791        O  0.92666869  0.50804670  0.80422331    -0.72700
O792        O  0.92809270  0.42371772  0.72609439    -0.73700
O793        O  0.97932703  0.46608638  0.76575874    -0.62300
O794        O  0.87722635  0.46622748  0.76504011    -0.70800
O795        O  0.87751987  0.53974479  0.73820322    -0.70300
O796        O  0.97962277  0.53818337  0.73777404    -0.61600
O797        O  0.92682651  0.49692194  0.69908935    -0.74100
O798        O  0.92849778  0.58130770  0.77729899    -0.72900
Cu799      Cu  0.92803705  0.46349301  0.76625619     1.04600
Cu800      Cu  0.92834972  0.54156063  0.73708922     1.04300
C801        C  0.92614732  0.55749233  0.80316580     0.93500
C802        C  0.92606337  0.44747139  0.70019323     0.92600
C803        C  0.99562931  0.50204024  0.75181861     0.84700
C804        C  0.86148013  0.50319151  0.75168165     0.91000
C805        C  0.90820206  0.59826289  0.88678773     0.86700
C806        C  0.90519907  0.56615640  0.85707548    -0.53600
C807        C  0.92210854  0.58662973  0.83229848     0.09600
C808        C  0.93983556  0.63846447  0.83929143     0.20600
C809        C  0.94665732  0.60454135  0.89166795    -0.54300
C810        C  0.96291230  0.62547315  0.86678025     0.09700
C811        C  0.89579737  0.65270324  0.87802625    -0.53800
C812        C  0.91250264  0.67394671  0.85336669     0.10300
H813        H  0.89200109  0.52925227  0.85609581     0.14800
H814        H  0.95356919  0.65544995  0.81920692     0.00500
H815        H  0.96021357  0.59279887  0.91238677     0.15100
H816        H  0.87719360  0.67394763  0.89156082     0.14900
C817        C  0.90852771  0.40610226  0.61659508     0.86700
C818        C  0.90543420  0.43848971  0.64618468    -0.53600
C819        C  0.92217743  0.41818218  0.67109400     0.09600
C820        C  0.93987294  0.36623469  0.66433983     0.20600
C821        C  0.94700751  0.39971387  0.61188922    -0.54300
C822        C  0.96311443  0.37893950  0.63692691     0.09700
C823        C  0.89601715  0.35176070  0.62546761    -0.53800
C824        C  0.91259063  0.33065804  0.65023636     0.10300
H825        H  0.89227644  0.47542407  0.64699929     0.14800
H826        H  0.95347494  0.34938924  0.68454231     0.00500
H827        H  0.96065717  0.41126938  0.59118423     0.15100
H828        H  0.87750831  0.33040092  0.61186872     0.14900
N829        N  0.84798773  0.45998819  0.56015991    -0.27100
N830        N  0.87660506  0.46706793  0.54484389    -0.35000
C831        C  0.90249858  0.44903417  0.56196726     0.01200
C832        C  0.88961423  0.42963024  0.58957058     0.07300
C833        C  0.85493399  0.43750998  0.58759180    -0.05800
H834        H  0.92867941  0.45052594  0.55469027     0.07900
H835        H  0.83612441  0.42721419  0.60478610     0.09100
Cu836      Cu  0.87925884  0.50112744  0.00137615     0.44200
Cu837      Cu  0.80102859  0.47919755  0.54195840     0.42000
Cu838      Cu  0.80071894  0.52417492  0.96123090     0.43900
N839        N  0.87632233  0.53601350  0.95815443    -0.34500
N840        N  0.84765523  0.54354076  0.94298292    -0.28700
C841        C  0.85454843  0.56662478  0.91571006    -0.04800
C842        C  0.88924128  0.57443581  0.91370154     0.07400
C843        C  0.90217456  0.55436532  0.94111631     0.01200
H844        H  0.83569992  0.57735135  0.89864358     0.08800
H845        H  0.92837258  0.55256163  0.94831771     0.07900
N846        N  0.75747926  0.50893970  0.98701397    -0.35900
N847        N  0.75761569  0.49499863  0.51657835    -0.28100
C848        C  0.72544355  0.49114003  0.52661795    -0.03300
C849        C  0.70425892  0.50263316  0.00212399     0.05300
C850        C  0.72520387  0.51357326  0.97736423     0.03400
H851        H  0.71807324  0.48006113  0.54987140     0.08500
H852        H  0.71760795  0.52487834  0.95420900     0.07300
C853        C  0.90833654  0.90633404  0.88645771     0.86700
C854        C  0.89582116  0.85191665  0.87776023    -0.53600
C855        C  0.91237430  0.83061333  0.85304636     0.09600
C856        C  0.93965040  0.86605918  0.83882127     0.20600
C857        C  0.94682568  0.89999098  0.89116032    -0.54300
C858        C  0.96291777  0.87901400  0.86618336     0.09700
C859        C  0.90521480  0.93845038  0.85676014    -0.53800
C860        C  0.92194844  0.91793504  0.83190828     0.10300
H861        H  0.87730852  0.83068193  0.89141831     0.14800
H862        H  0.95323679  0.84904358  0.81866742     0.00500
H863        H  0.96050011  0.91174361  0.91181551     0.15100
H864        H  0.89208177  0.97539900  0.85584026     0.14900
C865        C  0.90844207  0.09864656  0.61626473     0.86700
C866        C  0.89602636  0.15299735  0.62520384    -0.53600
C867        C  0.91272447  0.17402349  0.64993614     0.09600
C868        C  0.94005456  0.13840420  0.66390582     0.20600
C869        C  0.94688929  0.10499064  0.61141391    -0.54300
C870        C  0.96313280  0.12569673  0.63638035     0.09700
C871        C  0.90544199  0.06623808  0.64586030    -0.53800
C872        C  0.92233458  0.08648160  0.67071495     0.10300
H873        H  0.87744140  0.17437598  0.61171438     0.14800
H874        H  0.95378306  0.15520551  0.68405295     0.00500
H875        H  0.96044052  0.09347501  0.59065133     0.15100
H876        H  0.89222584  0.02934078  0.64671344     0.14900
N877        N  0.84782896  0.04462425  0.55991732    -0.27100
N878        N  0.87647435  0.03709330  0.54472025    -0.35000
C879        C  0.90236553  0.05521034  0.56181051     0.01200
C880        C  0.88946902  0.07510904  0.58927718     0.07300
C881        C  0.85477060  0.06745159  0.58725147    -0.05800
H882        H  0.92856283  0.05333500  0.55462164     0.07900
H883        H  0.83594909  0.07809615  0.60435337     0.09100
Cu884      Cu  0.87935086  0.00236594  0.50144651     0.44200
Cu885      Cu  0.80083153  0.02554199  0.54173289     0.42000
Cu886      Cu  0.80102601  0.98036565  0.96107077     0.43900
N887        N  0.87658699  0.96803475  0.95805390    -0.34500
N888        N  0.84792882  0.96089768  0.94280105    -0.28700
C889        C  0.85479674  0.93813009  0.91543549    -0.04800
C890        C  0.88946966  0.93013383  0.91343294     0.07400
C891        C  0.90242401  0.94976552  0.94095845     0.01200
H892        H  0.83593971  0.92771531  0.89830378     0.08800
H893        H  0.92861757  0.95124082  0.94820696     0.07900
N894        N  0.75762705  0.99585138  0.98657080    -0.35900
N895        N  0.75755277  0.00990705  0.51611458    -0.28100
C896        C  0.72530272  0.01416434  0.52588564    -0.03300
C897        C  0.70429388  0.00280149  0.50123455     0.05300
C898        C  0.72542381  0.99152587  0.97666709     0.03400
H899        H  0.71776366  0.02549797  0.54904791     0.08500
H900        H  0.71799736  0.98029623  0.95345258     0.07300
O901        O  0.04940438  0.03720420  0.76491515    -0.72700
O902        O  0.15148993  0.03776829  0.76400591    -0.73700
O903        O  0.10048074  0.07990134  0.72521079    -0.62300
O904        O  0.10219405  0.99560681  0.80329577    -0.70800
O905        O  0.10047940  0.92229961  0.77641702    -0.70300
O906        O  0.10188064  0.00675920  0.69815544    -0.61600
O907        O  0.15132687  0.96425151  0.73717322    -0.74100
O908        O  0.04918247  0.96511957  0.73692460    -0.72900
Cu909      Cu  0.10067810  0.04012358  0.76534216     1.04600
Cu910      Cu  0.10048828  0.96206438  0.73617426     1.04300
C911        C  0.03313629  0.00119355  0.75098963     0.93500
C912        C  0.16730360  0.00102265  0.75050794     0.92600
C913        C  0.10260816  0.05621428  0.69929902     0.84700
C914        C  0.10275259  0.94616493  0.80227571     0.91000
O915        O  0.92793185  0.92329982  0.77688556    -0.72700
O916        O  0.92664790  0.00772799  0.69871926    -0.73700
O917        O  0.97927528  0.96546691  0.73719037    -0.62300
O918        O  0.87712214  0.96602331  0.73795293    -0.70800
O919        O  0.87759825  0.03952319  0.76479958    -0.70300
O920        O  0.97966718  0.03755222  0.76517915    -0.61600
O921        O  0.92863538  0.08091906  0.72569721    -0.74100
O922        O  0.92683095  0.99654023  0.80385670    -0.72900
Cu923      Cu  0.92794723  0.96309160  0.73669968     1.04600
Cu924      Cu  0.92842063  0.04114130  0.76587543     1.04300
C925        C  0.92593910  0.94710097  0.80277629     0.93500
C926        C  0.92625436  0.05718320  0.69981151     0.92600
C927        C  0.99562804  0.00137803  0.75113303     0.84700
C928        C  0.86146576  0.00300454  0.75138006     0.91000
C929        C  0.12031216  0.59810476  0.88736436     0.86700
C930        C  0.13277000  0.65244461  0.87841138    -0.53600
C931        C  0.11614238  0.67342273  0.85363522     0.09600
C932        C  0.08883014  0.63780986  0.83964094     0.20600
C933        C  0.08184160  0.60446333  0.89213477    -0.54300
C934        C  0.06567310  0.62515698  0.86711210     0.09700
C935        C  0.12335062  0.56564428  0.85778454    -0.53800
C936        C  0.10651523  0.58588147  0.83289335     0.10300
H937        H  0.15133574  0.67385139  0.89191748     0.14800
H938        H  0.07516565  0.65459605  0.81945526     0.00500
H939        H  0.06823933  0.59297313  0.91287852     0.15100
H940        H  0.13653132  0.52873043  0.85696761     0.14900
C941        C  0.12056151  0.40587859  0.61716980     0.86700
C942        C  0.13302586  0.35144821  0.62586186    -0.53600
C943        C  0.11637216  0.33007855  0.65050977     0.09600
C944        C  0.08905360  0.36551567  0.66468307     0.19800
C945        C  0.08210037  0.39955006  0.61234213    -0.54300
C946        C  0.06590041  0.37854216  0.63724346     0.09700
C947        C  0.12359899  0.43792668  0.64689195    -0.53800
C948        C  0.10677096  0.41738790  0.67168587     0.10300
H949        H  0.15158190  0.33025570  0.61224211     0.14800
H950        H  0.07537708  0.34846784  0.68478035     0.00500
H951        H  0.06850294  0.41135761  0.59165854     0.15100
H952        H  0.13676370  0.47485969  0.64786762     0.14900
N953        N  0.18093919  0.54494410  0.94401037    -0.27100
N954        N  0.15227935  0.53729819  0.95916175    -0.35000
C955        C  0.12636447  0.55497097  0.94193299     0.01200
C956        C  0.13926658  0.57469814  0.91441608     0.07300
C957        C  0.17399240  0.56738089  0.91656003    -0.05800
H958        H  0.10015322  0.55298388  0.94907378     0.07900
H959        H  0.19283289  0.57810746  0.89948919     0.09100
Cu960      Cu  0.14956869  0.50295034  0.50255408     0.44200
Cu961      Cu  0.22792324  0.52666473  0.96253328     0.42000
Cu962      Cu  0.22795074  0.48139195  0.54322236     0.43900
N963        N  0.15242143  0.46824742  0.54583782    -0.34500
N964        N  0.18104259  0.46119720  0.56116342    -0.28700
C965        C  0.17414158  0.43808959  0.58842137    -0.04800
C966        C  0.13948988  0.42980763  0.59027901     0.07400
C967        C  0.12658246  0.44959361  0.56278046     0.01200
H968        H  0.19295531  0.42773974  0.60560345     0.08800
H969        H  0.10041330  0.45098032  0.55545688     0.07900
N970        N  0.27125507  0.49780314  0.51782004    -0.35900
N971        N  0.27125032  0.51188107  0.98827842    -0.28100
C972        C  0.30347265  0.51651734  0.97849989    -0.03300
C973        C  0.32454223  0.50542879  0.50314378     0.05300
C974        C  0.30348196  0.49384794  0.52771472     0.03400
H975        H  0.31095051  0.52771555  0.95529593     0.08500
H976        H  0.31097285  0.48245379  0.55088300     0.07300
C977        C  0.12039239  0.90608792  0.88604931     0.86700
C978        C  0.12351764  0.93787243  0.85623493    -0.53600
C979        C  0.10671767  0.91715958  0.83146840     0.09600
C980        C  0.08891798  0.86542147  0.83859600     0.20600
C981        C  0.08190989  0.89991357  0.89082054    -0.54300
C982        C  0.06572725  0.87873924  0.86595071     0.09700
C983        C  0.13281107  0.85156408  0.87754142    -0.53800
C984        C  0.11617626  0.83005691  0.85292353     0.10300
H985        H  0.13671645  0.97477044  0.85517346     0.14800
H986        H  0.07526135  0.84824075  0.81852347     0.00500
H987        H  0.06828765  0.91195884  0.91143477     0.15100
H988        H  0.15134272  0.83044524  0.89123846     0.14900
C989        C  0.12047308  0.09834732  0.61585686     0.86700
C990        C  0.12342756  0.06559924  0.64533401    -0.53600
C991        C  0.10659131  0.08566142  0.67026289     0.09600
C992        C  0.08900544  0.13774049  0.66366121     0.20600
C993        C  0.08202345  0.10490663  0.61105366    -0.54300
C994        C  0.06586363  0.12542720  0.63612030     0.09700
C995        C  0.13300655  0.15257243  0.62499629    -0.53800
C996        C  0.11637887  0.17341033  0.64981287     0.10300
H997        H  0.13655765  0.02863732  0.64605214     0.14800
H998        H  0.07534136  0.15438870  0.68388175     0.00500
H999        H  0.06842741  0.09368463  0.59024874     0.15100
H1000       H  0.15158800  0.17405003  0.61155535     0.14900
N1001       N  0.18100019  0.04532174  0.55910807    -0.27100
N1002       N  0.15229265  0.03735763  0.54408225    -0.35000
C1003       C  0.12641085  0.05502441  0.56134263     0.01200
C1004       C  0.13938735  0.07506040  0.58875540     0.07300
C1005       C  0.17411975  0.06793096  0.58651694    -0.05800
H1006       H  0.10016774  0.05273726  0.55432156     0.07900
H1007       H  0.19300705  0.07886734  0.60350296     0.09100
Cu1008     Cu  0.14949114  0.00261384  0.50081248     0.44200
Cu1009     Cu  0.22794419  0.02715194  0.54049172     0.42000
Cu1010     Cu  0.22780885  0.98226797  0.95977155     0.43900
N1011       N  0.15230454  0.96836368  0.95740371    -0.34500
N1012       N  0.18088284  0.96176241  0.94194891    -0.28700
C1013       C  0.17395200  0.93877758  0.91465804    -0.04800
C1014       C  0.13932634  0.93015747  0.91289988     0.07400
C1015       C  0.12646582  0.94958644  0.94049966     0.01200
H1016       H  0.19273040  0.92872594  0.89738796     0.08800
H1017       H  0.10033366  0.95055899  0.94794569     0.07900
N1018       N  0.27119295  0.99836976  0.98516646    -0.35900
N1019       N  0.27123271  0.01228197  0.51473465    -0.28100
C1020       C  0.30346752  0.01662171  0.52453852    -0.03300
C1021       C  0.32450865  0.00550763  0.49988594     0.05300
C1022       C  0.30341117  0.99423240  0.97527895     0.03400
H1023       H  0.31097611  0.02764079  0.54776756     0.08500
H1024       H  0.31086865  0.98290701  0.95209338     0.07300
C1025       C  0.11844161  0.27508251  0.65674362    -0.13100
C1026       C  0.11846529  0.22825250  0.65651631    -0.14600
C1027       C  0.11827644  0.72825429  0.84699064    -0.13100
C1028       C  0.11827260  0.77506856  0.84676223    -0.14600
C1029       C  0.99929074  0.13087830  0.63739154    -0.13100
C1030       C  0.02972353  0.13077265  0.63726779    -0.14600
C1031       C  0.02953861  0.87363806  0.86485756    -0.13100
C1032       C  0.99908850  0.87374502  0.86496266    -0.14600
C1033       C  0.02971913  0.37342537  0.63829002    -0.13100
C1034       C  0.99927364  0.37359258  0.63814923    -0.14600
C1035       C  0.91056909  0.27571493  0.65662157    -0.13100
C1036       C  0.91061919  0.22889007  0.65652192    -0.14600
C1037       C  0.99908323  0.63058316  0.86579450    -0.13100
C1038       C  0.02952097  0.63044611  0.86594338    -0.14600
C1039       C  0.91033770  0.72883115  0.84686967    -0.13100
C1040       C  0.91029090  0.77565161  0.84676030    -0.14600
C1041       C  0.61816001  0.22996534  0.59644369    -0.13100
C1042       C  0.61818485  0.27678032  0.59674419    -0.14600
C1043       C  0.61852108  0.77676857  0.90623706    -0.13100
C1044       C  0.61849573  0.72994080  0.90652071    -0.14600
C1045       C  0.49906404  0.13193505  0.61447470    -0.13100
C1046       C  0.52951224  0.13167886  0.61462578    -0.14600
C1047       C  0.49925537  0.87479839  0.88690488    -0.13100
C1048       C  0.52969172  0.87456312  0.88705949    -0.14600
C1049       C  0.49908878  0.37498037  0.61636096    -0.13100
C1050       C  0.52952122  0.37467858  0.61626900    -0.14600
C1051       C  0.41043634  0.23097214  0.59645511    -0.13100
C1052       C  0.41035505  0.27779398  0.59689559    -0.14600
C1053       C  0.49924859  0.63199463  0.88871211    -0.13100
C1054       C  0.52969916  0.63170184  0.88862732    -0.14600
C1055       C  0.41049409  0.73091267  0.90663243    -0.13100
C1056       C  0.41039997  0.77772947  0.90620785    -0.14600
loop_ 
_geom_bond_atom_site_label_1 
_geom_bond_atom_site_label_2 
_geom_bond_distance 
_geom_bond_site_symmetry_2 
_ccdc_geom_bond_type 
O1           C11   1.277       .  A
O1         Cu537   2.015       .  S
O2           C12   1.278       .  A
O2           Cu9   2.004       .  S
O3          C541   1.277       .  A
O3           Cu9   2.007       .  S
O4           C14   1.280       .  A
O4           Cu9   2.026       .  S
O5          C542   1.279       .  A
O5          Cu10   2.024       .  S
O6           C13   1.276       .  A
O6          Cu10   2.006       .  S
O7           C12   1.276       .  A
O7         Cu538   2.012   1_554  S
O8           C11   1.278       .  A
O8          Cu10   2.002       .  S
Cu9         O529   2.015   1_554  S
Cu9        Cu538   2.376   1_554  S
Cu10        O535   2.012       .  S
Cu10       Cu537   2.376       .  S
C11         C203   1.473       .  S
C12         C215   1.473       .  S
C13         O531   1.277       .  A
C13         C321   1.458       .  S
C14         O533   1.279   1_554  A
C14          C27   1.480       .  S
O15          C25   1.277       .  A
O15        Cu551   2.017       .  S
O16          C26   1.279       .  A
O16         Cu23   2.005       .  S
O17          C27   1.279       .  A
O17         Cu23   2.025       .  S
O18          C28   1.276       .  A
O18         Cu23   2.006       .  S
O19         C556   1.276       .  A
O19         Cu24   2.007       .  S
O20         C555   1.279       .  A
O20         Cu24   2.024       .  S
O21          C26   1.276       .  A
O21        Cu552   2.010   1_554  S
O22          C25   1.278       .  A
O22         Cu24   2.000       .  S
Cu23        O543   2.017   1_554  S
Cu23       Cu552   2.376   1_554  S
Cu24        O549   2.010       .  S
Cu24       Cu551   2.376       .  S
C25          C36   1.473       .  S
C26          C48   1.472       .  S
C27         O548   1.279   1_554  A
C28         O547   1.276   1_554  A
C28         C445   1.458       .  S
C29          C30   1.535       .  S
C29          C35   1.530       .  S
C29          C33   1.540       .  S
C29          C66   1.511       .  S
C30          H37   1.087       .  S
C30          C31   1.365       .  D
C31          C32   1.541       .  S
C31         C527   1.448       .  S
C32          C36   1.541       .  S
C32          C34   1.532       .  S
C32          H38   1.111       .  S
C33          H39   1.084       .  S
C33          C34   1.362       .  D
C34         C525   1.435       .  S
C35          H40   1.087       .  S
C35          C36   1.366       .  D
C41          C42   1.537       .  S
C41          C47   1.530       .  S
C41          C45   1.540       .  S
C41          C56   1.511       .  S
C42          H49   1.087       .  S
C42          C43   1.366       .  D
C43          C44   1.539       .  S
C43         C524   1.448       .  S
C44          C48   1.540       .  S
C44          C46   1.531       .  S
C44          H50   1.112       .  S
C45          H51   1.084       .  S
C45          C46   1.362       .  D
C46         C521   1.433       .  S
C47          H52   1.087       .  S
C47          C48   1.365       .  D
N53          N54   1.321       .  A
N53          C57   1.345       .  A
N53         Cu61   2.071       .  S
N54          C55   1.343       .  A
N54         Cu60   2.073       .  S
C55          C56   1.388       .  A
C55          H58   1.080       .  S
C56          C57   1.386       .  A
C57          H59   1.082       .  S
Cu60         N63   2.073       .  S
Cu61         N71   2.072       .  S
Cu62         N64   2.074       .  S
Cu62         N70   2.074       .  S
N63          N64   1.321       .  A
N63          C67   1.343       .  A
N64          C65   1.346       .  A
C65          C66   1.386       .  A
C65          H68   1.082       .  S
C66          C67   1.387       .  A
C67          H69   1.080       .  S
N70          N71   1.324       .  A
N70          C74   1.345       .  A
N71          C72   1.344       .  A
C72          C73   1.378       .  A
C72          H75   1.082       .  S
C73         C261   1.458       .  S
C73          C74   1.379       .  A
C74          H76   1.082       .  S
C77          C78   1.530       .  S
C77          C83   1.537       .  S
C77          C81   1.540       .  S
C77         C114   1.511       .  S
C78          H85   1.087       .  S
C78          C79   1.365       .  D
C79         C151   1.472       .  S
C79          C80   1.540       .  S
C80          C84   1.539       .  S
C80          C82   1.531       .  S
C80          H86   1.112       .  S
C81          H87   1.084       .  S
C81          C82   1.362       .  D
C82         C519   1.434       .  S
C83          H88   1.087       .  S
C83          C84   1.366       .  D
C84         C528   1.448       .  S
C89          C90   1.530       .  S
C89          C95   1.535       .  S
C89          C93   1.540       .  S
C89         C104   1.511       .  S
C90          H97   1.087       .  S
C90          C91   1.366       .  D
C91         C152   1.473       .  S
C91          C92   1.541       .  S
C92          C96   1.541       .  S
C92          C94   1.532       .  S
C92          H98   1.111       .  S
C93          H99   1.084       .  S
C93          C94   1.362       .  D
C94         C517   1.434       .  S
C95         H100   1.087       .  S
C95          C96   1.365       .  D
C96         C523   1.448       .  S
N101        N102   1.321       .  A
N101        C105   1.346       .  A
N101       Cu109   2.073       .  S
N102        C103   1.343       .  A
N102       Cu108   2.073       .  S
C103        C104   1.387       .  A
C103        H106   1.080       .  S
C104        C105   1.386       .  A
C105        H107   1.082       .  S
Cu108       N111   2.073   1_545  S
Cu109       N119   2.074       .  S
Cu110       N112   2.072       .  S
Cu110       N118   2.073       .  S
N111        N112   1.321       .  A
N111        C115   1.344       .  A
N112        C113   1.345       .  A
C113        C114   1.386       .  A
C113        H116   1.082       .  S
C114        C115   1.388       .  A
C115        H117   1.080       .  S
N118        N119   1.324   1_565  A
N118        C122   1.345       .  A
N119        C120   1.345       .  A
C120        C121   1.379       .  A
C120        H123   1.082       .  S
C121        C384   1.458       .  S
C121        C122   1.379   1_545  A
C122        H124   1.082       .  S
O125        C135   1.278       .  A
O125       Cu133   2.003   1_545  S
O126        C136   1.276       .  A
O126       Cu661   2.013       .  S
O127        C137   1.276   1_565  A
O127       Cu133   2.007       .  S
O128        C138   1.280   1_565  A
O128       Cu133   2.026       .  S
O129        C666   1.279       .  A
O129       Cu134   2.025       .  S
O130        C665   1.276       .  A
O130       Cu134   2.006       .  S
O131        C136   1.278       .  A
O131       Cu134   2.003   1_565  S
O132        C135   1.277       .  A
O132       Cu662   2.014   1_554  S
Cu133       O654   2.013   1_554  S
Cu133      Cu662   2.376   1_564  S
Cu134       O660   2.014       .  S
Cu134      Cu661   2.376   1_545  S
C135        C172   1.473       .  S
C136        C160   1.473       .  S
C137        O658   1.276   1_554  A
C137        C369   1.458       .  S
C138        O657   1.279   1_554  A
C138        C150   1.480       .  S
O139        C677   1.276       .  A
O139       Cu147   2.007       .  S
O140        C678   1.279       .  A
O140       Cu147   2.025       .  S
O141        C151   1.279       .  A
O141       Cu147   2.004   1_565  S
O142        C152   1.277       .  A
O142       Cu675   2.016   1_554  S
O143        C152   1.278       .  A
O143       Cu148   2.001   1_545  S
O144        C151   1.276       .  A
O144       Cu676   2.012       .  S
O145        C150   1.279   1_565  A
O145       Cu148   2.025       .  S
O146        C149   1.277   1_564  A
O146       Cu148   2.007       .  S
Cu147       O670   2.016       .  S
Cu147      Cu676   2.376   1_545  S
Cu148       O672   2.012   1_554  S
Cu148      Cu675   2.376   1_564  S
C149        O667   1.276       .  A
C149        C493   1.458       .  S
C150        O668   1.279   1_554  A
C153        C154   1.537       .  S
C153        C159   1.530       .  S
C153        C157   1.540       .  S
C153        C180   1.511       .  S
C154        H161   1.087       .  S
C154        C155   1.366       .  D
C155        C156   1.540       .  S
C155        C515   1.448       .  S
C156        C160   1.540       .  S
C156        C158   1.531       .  S
C156        H162   1.111       .  S
C157        H163   1.084       .  S
C157        C158   1.362       .  D
C158        C520   1.434       .  S
C159        H164   1.087       .  S
C159        C160   1.365       .  D
C165        C166   1.536       .  S
C165        C171   1.530       .  S
C165        C169   1.541       .  S
C165        C190   1.511       .  S
C166        H173   1.087       .  S
C166        C167   1.365       .  D
C167        C168   1.540       .  S
C167        C513   1.447       .  S
C168        C172   1.540       .  S
C168        C170   1.531       .  S
C168        H174   1.111       .  S
C169        H175   1.084       .  S
C169        C170   1.362       .  D
C170        C518   1.434       .  S
C171        H176   1.087       .  S
C171        C172   1.366       .  D
N177        N178   1.321       .  A
N177        C181   1.345       .  A
N177       Cu185   2.072       .  S
N178        C179   1.343       .  A
N178       Cu184   2.073   1_565  S
C179        C180   1.388       .  A
C179        H182   1.080       .  S
C180        C181   1.386       .  A
C181        H183   1.082       .  S
Cu184       N187   2.073       .  S
Cu185       N195   2.072       .  S
Cu186       N188   2.074       .  S
Cu186       N194   2.074       .  S
N187        N188   1.321       .  A
N187        C191   1.344       .  A
N188        C189   1.346       .  A
C189        C190   1.386       .  A
C189        H192   1.082       .  S
C190        C191   1.387       .  A
C191        H193   1.080       .  S
N194        N195   1.324   1_545  A
N194        C198   1.345       .  A
N195        C196   1.345       .  A
C196        C197   1.379   1_565  A
C196        H199   1.082       .  S
C197        C400   1.458       .  S
C197        C198   1.379       .  A
C198        H200   1.082       .  S
C201        C202   1.530       .  S
C201        C207   1.536       .  S
C201        C205   1.541       .  S
C201        C228   1.511       .  S
C202        H209   1.087       .  S
C202        C203   1.366       .  D
C203        C204   1.541       .  S
C204        C208   1.541       .  S
C204        C206   1.531       .  S
C204        H210   1.111       .  S
C205        H211   1.084       .  S
C205        C206   1.363       .  D
C206        C526   1.435       .  S
C207        H212   1.087       .  S
C207        C208   1.365       .  D
C208        C516   1.448       .  S
C213        C214   1.531       .  S
C213        C219   1.536       .  S
C213        C217   1.540       .  S
C213        C238   1.511       .  S
C214        H221   1.087       .  S
C214        C215   1.365       .  D
C215        C216   1.540       .  S
C216        C220   1.540       .  S
C216        C218   1.531       .  S
C216        H222   1.111       .  S
C217        H223   1.084       .  S
C217        C218   1.362       .  D
C218        C522   1.433       .  S
C219        H224   1.087       .  S
C219        C220   1.366       .  D
C220        C514   1.448       .  S
N225        N226   1.321       .  A
N225        C229   1.346       .  A
N225       Cu233   2.074       .  S
N226        C227   1.344       .  A
N226       Cu232   2.073       .  S
C227        C228   1.387       .  A
C227        H230   1.080       .  S
C228        C229   1.386       .  A
C229        H231   1.082       .  S
Cu232       N235   2.073       .  S
Cu233       N243   2.075       .  S
Cu234       N236   2.071       .  S
Cu234       N242   2.072       .  S
N235        N236   1.321       .  A
N235        C239   1.343       .  A
N236        C237   1.346       .  A
C237        C238   1.386       .  A
C237        H240   1.082       .  S
C238        C239   1.388       .  A
C239        H241   1.080       .  S
N242        N243   1.324       .  A
N242        C246   1.345       .  A
N243        C244   1.345       .  A
C244        C245   1.379       .  A
C244        H247   1.082       .  S
C245        C276   1.458       .  S
C245        C246   1.378       .  A
C246        H248   1.082       .  S
O249        C259   1.278       .  A
O249       Cu257   2.002       .  S
O250        C260   1.276       .  A
O250       Cu257   2.013       .  S
O251        C261   1.276       .  A
O251       Cu257   2.006       .  S
O252        C262   1.279       .  A
O252       Cu257   2.024       .  S
O253        C262   1.279       .  A
O253       Cu258   2.025       .  S
O254        C261   1.276       .  A
O254       Cu258   2.007       .  S
O255        C260   1.278       .  A
O255       Cu258   2.003       .  S
O256        C259   1.277       .  A
O256       Cu258   2.015       .  S
Cu257      Cu258   2.376       .  S
C259        C420   1.473       .  S
C260        C408   1.473       .  S
C262        C275   1.480   1_455  S
O263        C273   1.278       .  A
O263       Cu271   2.001       .  S
O264        C274   1.276       .  A
O264       Cu271   2.013       .  S
O265        C275   1.279       .  A
O265       Cu271   2.025       .  S
O266        C276   1.276       .  A
O266       Cu271   2.007       .  S
O267        C276   1.276       .  A
O267       Cu272   2.006       .  S
O268        C275   1.279       .  A
O268       Cu272   2.025       .  S
O269        C274   1.279       .  A
O269       Cu272   2.004       .  S
O270        C273   1.277       .  A
O270       Cu272   2.014       .  S
Cu271      Cu272   2.376       .  S
C273        C279   1.473       .  S
C274        C291   1.473       .  S
C277        C278   1.530       .  S
C277        C283   1.536       .  S
C277        C281   1.540       .  S
C277        C314   1.511       .  S
C278        H285   1.087       .  S
C278        C279   1.366       .  D
C279        C280   1.540       .  S
C280        C284   1.540       .  S
C280        C282   1.531       .  S
C280        H286   1.111       .  S
C281        H287   1.084       .  S
C281        C282   1.362       .  D
C282        C509   1.434       .  S
C283        H288   1.087       .  S
C283        C284   1.366       .  D
C284        C511   1.448       .  S
C289        C290   1.530       .  S
C289        C295   1.536       .  S
C289        C293   1.541       .  S
C289        C304   1.511       .  S
C290        H297   1.087       .  S
C290        C291   1.365       .  D
C291        C292   1.541       .  S
C292        C296   1.540       .  S
C292        C294   1.531       .  S
C292        H298   1.111       .  S
C293        H299   1.084       .  S
C293        C294   1.362       .  D
C294        C506   1.434       .  S
C295        H300   1.087       .  S
C295        C296   1.365       .  D
C296        C507   1.448       .  S
N301        N302   1.321       .  A
N301        C305   1.345       .  A
N301       Cu309   2.072       .  S
N302        C303   1.344       .  A
N302       Cu836   2.072       .  S
C303        C304   1.387       .  A
C303        H306   1.080       .  S
C304        C305   1.386       .  A
C305        H307   1.082       .  S
Cu308       N311   2.073       .  S
Cu308       N830   2.072       .  S
Cu309       N319   2.073       .  S
Cu310       N312   2.073       .  S
Cu310       N318   2.074       .  S
N311        N312   1.321       .  A
N311        C315   1.343       .  A
N312        C313   1.346       .  A
C313        C314   1.386       .  A
C313        H316   1.082       .  S
C314        C315   1.387       .  A
C315        H317   1.080       .  S
N318        N847   1.324       .  A
N318        C322   1.345       .  A
N319        N846   1.324   1_554  A
N319        C320   1.345       .  A
C320        C849   1.379       .  A
C320        H323   1.082       .  S
C321        C322   1.379       .  A
C321        C848   1.379       .  A
C322        H324   1.082       .  S
C325        C326   1.536       .  S
C325        C331   1.530       .  S
C325        C329   1.541       .  S
C325        C362   1.511       .  S
C326        H333   1.087       .  S
C326        C327   1.365       .  D
C327        C328   1.540       .  S
C327        C512   1.448       .  S
C328        C332   1.540       .  S
C328        C330   1.531       .  S
C328        H334   1.111       .  S
C329        H335   1.084       .  S
C329        C330   1.362       .  D
C330        C504   1.435       .  S
C331        H336   1.087       .  S
C331        C332   1.365       .  D
C332        C397   1.473       .  S
C337        C338   1.536       .  S
C337        C343   1.530       .  S
C337        C341   1.540       .  S
C337        C352   1.511       .  S
C338        H345   1.087       .  S
C338        C339   1.366       .  D
C339        C340   1.540       .  S
C339        C508   1.448       .  S
C340        C344   1.540       .  S
C340        C342   1.531       .  S
C340        H346   1.111       .  S
C341        H347   1.084       .  S
C341        C342   1.362       .  D
C342        C501   1.433       .  S
C343        H348   1.087       .  S
C343        C344   1.366       .  D
C344        C398   1.473       .  S
N349        N350   1.321       .  A
N349        C353   1.345       .  A
N349       Cu357   2.072       .  S
N350        C351   1.343       .  A
N350       Cu356   2.073       .  S
C351        C352   1.387       .  A
C351        H354   1.080       .  S
C352        C353   1.386       .  A
C353        H355   1.082       .  S
Cu356       N887   2.073   1_544  S
Cu357       N367   2.073       .  S
Cu358       N360   2.073       .  S
Cu358       N366   2.074       .  S
N359        N360   1.321       .  A
N359        C363   1.344       .  A
N359       Cu884   2.073   1_565  S
N360        C361   1.346       .  A
C361        C362   1.386       .  A
C361        H364   1.082       .  S
C362        C363   1.388       .  A
C363        H365   1.080       .  S
N366        N895   1.324   1_565  A
N366        C370   1.345       .  A
N367        N894   1.324   1_544  A
N367        C368   1.345       .  A
C368        C369   1.379       .  A
C368        H371   1.082       .  S
C369        C898   1.379   1_544  A
C370        C897   1.379   1_565  A
C370        H372   1.082       .  S
O373        C383   1.279       .  A
O373       Cu381   2.024       .  S
O374        C384   1.276       .  A
O374       Cu381   2.006       .  S
O375        C385   1.276       .  A
O375       Cu381   2.012       .  S
O376        C386   1.278       .  A
O376       Cu381   2.000   1_565  S
O377        C386   1.277       .  A
O377       Cu382   2.016       .  S
O378        C385   1.279       .  A
O378       Cu382   2.005   1_545  S
O379        C384   1.276   1_565  A
O379       Cu382   2.007       .  S
O380        C383   1.280   1_565  A
O380       Cu382   2.026       .  S
Cu381      Cu382   2.376   1_545  S
C383        C399   1.480   1_455  S
C385        C463   1.473       .  S
C386        C451   1.473       .  S
O387        C397   1.277       .  A
O387       Cu395   2.014       .  S
O388        C398   1.278       .  A
O388       Cu395   2.003   1_545  S
O389        C399   1.280   1_565  A
O389       Cu395   2.026       .  S
O390        C400   1.277   1_565  A
O390       Cu395   2.007       .  S
O391        C400   1.276       .  A
O391       Cu396   2.006       .  S
O392        C399   1.279       .  A
O392       Cu396   2.024       .  S
O393        C398   1.276       .  A
O393       Cu396   2.014       .  S
O394        C397   1.278       .  A
O394       Cu396   2.003   1_565  S
Cu395      Cu396   2.376   1_565  S
C401        C402   1.536       .  S
C401        C407   1.531       .  S
C401        C405   1.540       .  S
C401        C428   1.511       .  S
C402        H409   1.087       .  S
C402        C403   1.365       .  D
C403        C404   1.540       .  S
C403        C499   1.447       .  S
C404        C408   1.540       .  S
C404        C406   1.531       .  S
C404        H410   1.111       .  S
C405        H411   1.084       .  S
C405        C406   1.362       .  D
C406        C510   1.434       .  S
C407        H412   1.087       .  S
C407        C408   1.366       .  D
C413        C414   1.536       .  S
C413        C419   1.530       .  S
C413        C417   1.540       .  S
C413        C438   1.511       .  S
C414        H421   1.087       .  S
C414        C415   1.366       .  D
C415        C416   1.541       .  S
C415        C497   1.448       .  S
C416        C420   1.541       .  S
C416        C418   1.532       .  S
C416        H422   1.111       .  S
C417        H423   1.084       .  S
C417        C418   1.362       .  D
C418        C505   1.434       .  S
C419        H424   1.087       .  S
C419        C420   1.365       .  D
N425        N426   1.321       .  A
N425        C429   1.346       .  A
N425       Cu433   2.073       .  S
N426        C427   1.344       .  A
N426       Cu960   2.073       .  S
C427        C428   1.388       .  A
C427        H430   1.080       .  S
C428        C429   1.386       .  A
C429        H431   1.082       .  S
Cu432       N435   2.073       .  S
Cu432       N954   2.073   1_554  S
Cu433       N443   2.073       .  S
Cu434       N436   2.072       .  S
Cu434       N442   2.073       .  S
N435        N436   1.321       .  A
N435        C439   1.343       .  A
N436        C437   1.346       .  A
C437        C438   1.386       .  A
C437        H440   1.082       .  S
C438        C439   1.387       .  A
C439        H441   1.080       .  S
N442        N971   1.324   1_554  A
N442        C446   1.345       .  A
N443        N970   1.324       .  A
N443        C444   1.345       .  A
C444        C973   1.379       .  A
C444        H447   1.082       .  S
C445        C446   1.379       .  A
C445        C972   1.379   1_554  A
C446        H448   1.082       .  S
C449        C450   1.530       .  S
C449        C455   1.536       .  S
C449        C453   1.540       .  S
C449        C486   1.511       .  S
C450        H457   1.087       .  S
C450        C451   1.365       .  D
C451        C452   1.540       .  S
C452        C456   1.540       .  S
C452        C454   1.532       .  S
C452        H458   1.111       .  S
C453        H459   1.084       .  S
C453        C454   1.362       .  D
C454        C503   1.435       .  S
C455        H460   1.087       .  S
C455        C456   1.365       .  D
C456        C500   1.447       .  S
C461        C462   1.531       .  S
C461        C467   1.537       .  S
C461        C465   1.540       .  S
C461        C476   1.511       .  S
C462        H469   1.087       .  S
C462        C463   1.366       .  D
C463        C464   1.540       .  S
C464        C468   1.540       .  S
C464        C466   1.531       .  S
C464        H470   1.111       .  S
C465        H471   1.084       .  S
C465        C466   1.362       .  D
C466        C502   1.433       .  S
C467        H472   1.087       .  S
C467        C468   1.366       .  D
C468        C498   1.448       .  S
N473        N474   1.321       .  A
N473        C477   1.346       .  A
N473       Cu481   2.073       .  S
N474        C475   1.343       .  A
N474       Cu480   2.073       .  S
C475        C476   1.388       .  A
C475        H478   1.080       .  S
C476        C477   1.386       .  A
C477        H479   1.082       .  S
Cu480      N1011   2.073   1_544  S
Cu481       N491   2.073       .  S
Cu482       N484   2.073       .  S
Cu482       N490   2.073       .  S
N483        N484   1.321       .  A
N483        C487   1.343       .  A
N483      Cu1008   2.073   1_565  S
N484        C485   1.346       .  A
C485        C486   1.386       .  A
C485        H488   1.082       .  S
C486        C487   1.387       .  A
C487        H489   1.080       .  S
N490       N1019   1.324   1_565  A
N490        C494   1.345       .  A
N491       N1018   1.324   1_544  A
N491        C492   1.345       .  A
C492        C493   1.379   1_554  A
C492        H495   1.082       .  S
C493       C1022   1.379   1_545  A
C494       C1021   1.379   1_565  A
C494        H496   1.082       .  S
C497        C498   1.210       .  T
C499        C500   1.209       .  T
C501        C502   1.201   1_655  T
C503        C504   1.201   1_455  T
C505        C506   1.201   1_455  T
C507        C508   1.210       .  T
C509        C510   1.201   1_655  T
C511        C512   1.209       .  T
C513        C514   1.209       .  T
C515        C516   1.210       .  T
C517        C518   1.201       .  T
C519        C520   1.201       .  T
C521        C522   1.201       .  T
C523        C524   1.210       .  T
C525        C526   1.201       .  T
C527        C528   1.209       .  T
O529        C539   1.277       .  A
O530        C540   1.278       .  A
O530       Cu537   2.004       .  S
O531       Cu537   2.007       .  S
O532        C542   1.280       .  A
O532       Cu537   2.026       .  S
O533       Cu538   2.024       .  S
O534        C541   1.276   1_556  A
O534       Cu538   2.006       .  S
O535        C540   1.276       .  A
O536        C539   1.278       .  A
O536       Cu538   2.002       .  S
C539        C731   1.473       .  S
C540        C743   1.473       .  S
C541        C849   1.458       .  S
C542        C555   1.480       .  S
O543        C553   1.277       .  A
O544        C554   1.279       .  A
O544       Cu551   2.005       .  S
O545        C555   1.279       .  A
O545       Cu551   2.025       .  S
O546        C556   1.276       .  A
O546       Cu551   2.006       .  S
O547       Cu552   2.007       .  S
O548       Cu552   2.024       .  S
O549        C554   1.276       .  A
O550        C553   1.278       .  A
O550       Cu552   2.000       .  S
C553        C564   1.473       .  S
C554        C576   1.472       .  S
C556        C973   1.458       .  S
C557        C558   1.535       .  S
C557        C563   1.530       .  S
C557        C561   1.540       .  S
C557        C594   1.511       .  S
C558        H565   1.087       .  S
C558        C559   1.365       .  D
C559        C560   1.541       .  S
C559       C1055   1.448       .  S
C560        C564   1.541       .  S
C560        C562   1.532       .  S
C560        H566   1.111       .  S
C561        H567   1.084       .  S
C561        C562   1.362       .  D
C562       C1053   1.435       .  S
C563        H568   1.087       .  S
C563        C564   1.366       .  D
C569        C570   1.537       .  S
C569        C575   1.530       .  S
C569        C573   1.540       .  S
C569        C584   1.511       .  S
C570        H577   1.087       .  S
C570        C571   1.366       .  D
C571        C572   1.539       .  S
C571       C1052   1.448       .  S
C572        C576   1.540       .  S
C572        C574   1.531       .  S
C572        H578   1.112       .  S
C573        H579   1.084       .  S
C573        C574   1.362       .  D
C574       C1049   1.433       .  S
C575        H580   1.087       .  S
C575        C576   1.365       .  D
N581        N582   1.321       .  A
N581        C585   1.345       .  A
N581       Cu589   2.071       .  S
N582        C583   1.343       .  A
N582       Cu588   2.073       .  S
C583        C584   1.388       .  A
C583        H586   1.080       .  S
C584        C585   1.386       .  A
C585        H587   1.082       .  S
Cu588       N591   2.073       .  S
Cu589       N599   2.072       .  S
Cu590       N592   2.074       .  S
Cu590       N598   2.074       .  S
N591        N592   1.321       .  A
N591        C595   1.343       .  A
N592        C593   1.346       .  A
C593        C594   1.386       .  A
C593        H596   1.082       .  S
C594        C595   1.387       .  A
C595        H597   1.080       .  S
N598        N599   1.324       .  A
N598        C602   1.345       .  A
N599        C600   1.344       .  A
C600        C601   1.378       .  A
C600        H603   1.082       .  S
C601        C789   1.458       .  S
C601        C602   1.379       .  A
C602        H604   1.082       .  S
C605        C606   1.530       .  S
C605        C611   1.537       .  S
C605        C609   1.540       .  S
C605        C642   1.511       .  S
C606        H613   1.087       .  S
C606        C607   1.365       .  D
C607        C679   1.472       .  S
C607        C608   1.540       .  S
C608        C612   1.539       .  S
C608        C610   1.531       .  S
C608        H614   1.112       .  S
C609        H615   1.084       .  S
C609        C610   1.362       .  D
C610       C1047   1.434       .  S
C611        H616   1.087       .  S
C611        C612   1.366       .  D
C612       C1056   1.448       .  S
C617        C618   1.530       .  S
C617        C623   1.535       .  S
C617        C621   1.540       .  S
C617        C632   1.511       .  S
C618        H625   1.087       .  S
C618        C619   1.366       .  D
C619        C680   1.473       .  S
C619        C620   1.541       .  S
C620        C624   1.541       .  S
C620        C622   1.532       .  S
C620        H626   1.111       .  S
C621        H627   1.084       .  S
C621        C622   1.362       .  D
C622       C1045   1.434       .  S
C623        H628   1.087       .  S
C623        C624   1.365       .  D
C624       C1051   1.448       .  S
N629        N630   1.321       .  A
N629        C633   1.346       .  A
N629       Cu637   2.073       .  S
N630        C631   1.343       .  A
N630       Cu636   2.073       .  S
C631        C632   1.387       .  A
C631        H634   1.080       .  S
C632        C633   1.386       .  A
C633        H635   1.082       .  S
Cu636       N639   2.073   1_545  S
Cu637       N647   2.074       .  S
Cu638       N640   2.072       .  S
Cu638       N646   2.073       .  S
N639        N640   1.321       .  A
N639        C643   1.344       .  A
N640        C641   1.345       .  A
C641        C642   1.386       .  A
C641        H644   1.082       .  S
C642        C643   1.388       .  A
C643        H645   1.080       .  S
N646        N647   1.324   1_565  A
N646        C650   1.345       .  A
N647        C648   1.345       .  A
C648        C649   1.379       .  A
C648        H651   1.082       .  S
C649        C912   1.458       .  S
C649        C650   1.379   1_545  A
C650        H652   1.082       .  S
O653        C663   1.278       .  A
O653       Cu661   2.003   1_545  S
O654        C664   1.276       .  A
O655        C665   1.276   1_565  A
O655       Cu661   2.007       .  S
O656        C666   1.280   1_565  A
O656       Cu661   2.026       .  S
O657       Cu662   2.025       .  S
O658       Cu662   2.006       .  S
O659        C664   1.278       .  A
O659       Cu662   2.003   1_565  S
O660        C663   1.277       .  A
C663        C700   1.473       .  S
C664        C688   1.473       .  S
C665        C897   1.458       .  S
C666        C678   1.480       .  S
O667       Cu675   2.007       .  S
O668       Cu675   2.025       .  S
O669        C679   1.279       .  A
O669       Cu675   2.004   1_565  S
O670        C680   1.277       .  A
O671        C680   1.278       .  A
O671       Cu676   2.001   1_545  S
O672        C679   1.276       .  A
O673        C678   1.279   1_565  A
O673       Cu676   2.025       .  S
O674        C677   1.277   1_565  A
O674       Cu676   2.007       .  S
C677       C1021   1.458       .  S
C681        C682   1.537       .  S
C681        C687   1.530       .  S
C681        C685   1.540       .  S
C681        C708   1.511       .  S
C682        H689   1.087       .  S
C682        C683   1.366       .  D
C683        C684   1.540       .  S
C683       C1043   1.448       .  S
C684        C688   1.540       .  S
C684        C686   1.531       .  S
C684        H690   1.111       .  S
C685        H691   1.084       .  S
C685        C686   1.362       .  D
C686       C1048   1.434       .  S
C687        H692   1.087       .  S
C687        C688   1.365       .  D
C693        C694   1.536       .  S
C693        C699   1.530       .  S
C693        C697   1.541       .  S
C693        C718   1.511       .  S
C694        H701   1.087       .  S
C694        C695   1.365       .  D
C695        C696   1.540       .  S
C695       C1041   1.447       .  S
C696        C700   1.540       .  S
C696        C698   1.531       .  S
C696        H702   1.111       .  S
C697        H703   1.084       .  S
C697        C698   1.362       .  D
C698       C1046   1.434       .  S
C699        H704   1.087       .  S
C699        C700   1.366       .  D
N705        N706   1.321       .  A
N705        C709   1.345       .  A
N705       Cu713   2.072       .  S
N706        C707   1.343       .  A
N706       Cu712   2.073   1_565  S
C707        C708   1.388       .  A
C707        H710   1.080       .  S
C708        C709   1.386       .  A
C709        H711   1.082       .  S
Cu712       N715   2.073       .  S
Cu713       N723   2.072       .  S
Cu714       N716   2.074       .  S
Cu714       N722   2.074       .  S
N715        N716   1.321       .  A
N715        C719   1.344       .  A
N716        C717   1.346       .  A
C717        C718   1.386       .  A
C717        H720   1.082       .  S
C718        C719   1.387       .  A
C719        H721   1.080       .  S
N722        N723   1.324   1_545  A
N722        C726   1.345       .  A
N723        C724   1.345       .  A
C724        C725   1.379   1_565  A
C724        H727   1.082       .  S
C725        C928   1.458       .  S
C725        C726   1.379       .  A
C726        H728   1.082       .  S
C729        C730   1.530       .  S
C729        C735   1.536       .  S
C729        C733   1.541       .  S
C729        C756   1.511       .  S
C730        H737   1.087       .  S
C730        C731   1.366       .  D
C731        C732   1.541       .  S
C732        C736   1.541       .  S
C732        C734   1.531       .  S
C732        H738   1.111       .  S
C733        H739   1.084       .  S
C733        C734   1.363       .  D
C734       C1054   1.435       .  S
C735        H740   1.087       .  S
C735        C736   1.365       .  D
C736       C1044   1.448       .  S
C741        C742   1.531       .  S
C741        C747   1.536       .  S
C741        C745   1.540       .  S
C741        C766   1.511       .  S
C742        H749   1.087       .  S
C742        C743   1.365       .  D
C743        C744   1.540       .  S
C744        C748   1.540       .  S
C744        C746   1.531       .  S
C744        H750   1.111       .  S
C745        H751   1.084       .  S
C745        C746   1.362       .  D
C746       C1050   1.433       .  S
C747        H752   1.087       .  S
C747        C748   1.366       .  D
C748       C1042   1.448       .  S
N753        N754   1.321       .  A
N753        C757   1.346       .  A
N753       Cu761   2.074       .  S
N754        C755   1.344       .  A
N754       Cu760   2.073       .  S
C755        C756   1.387       .  A
C755        H758   1.080       .  S
C756        C757   1.386       .  A
C757        H759   1.082       .  S
Cu760       N763   2.073       .  S
Cu761       N771   2.075       .  S
Cu762       N764   2.071       .  S
Cu762       N770   2.072       .  S
N763        N764   1.321       .  A
N763        C767   1.343       .  A
N764        C765   1.346       .  A
C765        C766   1.386       .  A
C765        H768   1.082       .  S
C766        C767   1.388       .  A
C767        H769   1.080       .  S
N770        N771   1.324       .  A
N770        C774   1.345       .  A
N771        C772   1.345       .  A
C772        C773   1.379       .  A
C772        H775   1.082       .  S
C773        C804   1.458       .  S
C773        C774   1.378       .  A
C774        H776   1.082       .  S
O777        C787   1.278       .  A
O777       Cu785   2.002       .  S
O778        C788   1.276       .  A
O778       Cu785   2.013       .  S
O779        C789   1.276       .  A
O779       Cu785   2.006       .  S
O780        C790   1.279       .  A
O780       Cu785   2.024       .  S
O781        C790   1.279       .  A
O781       Cu786   2.025       .  S
O782        C789   1.276       .  A
O782       Cu786   2.007       .  S
O783        C788   1.278       .  A
O783       Cu786   2.003       .  S
O784        C787   1.277       .  A
O784       Cu786   2.015       .  S
Cu785      Cu786   2.376       .  S
C787        C948   1.473       .  S
C788        C936   1.473       .  S
C790        C803   1.480   1_455  S
O791        C801   1.278       .  A
O791       Cu799   2.001       .  S
O792        C802   1.276       .  A
O792       Cu799   2.013       .  S
O793        C803   1.279       .  A
O793       Cu799   2.025       .  S
O794        C804   1.276       .  A
O794       Cu799   2.007       .  S
O795        C804   1.276       .  A
O795       Cu800   2.006       .  S
O796        C803   1.279       .  A
O796       Cu800   2.025       .  S
O797        C802   1.279       .  A
O797       Cu800   2.004       .  S
O798        C801   1.277       .  A
O798       Cu800   2.014       .  S
Cu799      Cu800   2.376       .  S
C801        C807   1.473       .  S
C802        C819   1.473       .  S
C805        C806   1.530       .  S
C805        C811   1.536       .  S
C805        C809   1.540       .  S
C805        C842   1.511       .  S
C806        H813   1.087       .  S
C806        C807   1.366       .  D
C807        C808   1.540       .  S
C808        C812   1.540       .  S
C808        C810   1.531       .  S
C808        H814   1.111       .  S
C809        H815   1.084       .  S
C809        C810   1.362       .  D
C810       C1037   1.434       .  S
C811        H816   1.087       .  S
C811        C812   1.366       .  D
C812       C1039   1.448       .  S
C817        C818   1.530       .  S
C817        C823   1.536       .  S
C817        C821   1.541       .  S
C817        C832   1.511       .  S
C818        H825   1.087       .  S
C818        C819   1.365       .  D
C819        C820   1.541       .  S
C820        C824   1.540       .  S
C820        C822   1.531       .  S
C820        H826   1.111       .  S
C821        H827   1.084       .  S
C821        C822   1.362       .  D
C822       C1034   1.434       .  S
C823        H828   1.087       .  S
C823        C824   1.365       .  D
C824       C1035   1.448       .  S
N829        N830   1.321       .  A
N829        C833   1.345       .  A
N829       Cu837   2.072       .  S
N830        C831   1.344       .  A
C831        C832   1.387       .  A
C831        H834   1.080       .  S
C832        C833   1.386       .  A
C833        H835   1.082       .  S
Cu836       N839   2.073   1_554  S
Cu837       N847   2.073       .  S
Cu838       N840   2.073       .  S
Cu838       N846   2.074       .  S
N839        N840   1.321       .  A
N839        C843   1.343       .  A
N840        C841   1.346       .  A
C841        C842   1.386       .  A
C841        H844   1.082       .  S
C842        C843   1.387       .  A
C843        H845   1.080       .  S
N846        C850   1.345       .  A
N847        C848   1.345       .  A
C848        H851   1.082       .  S
C849        C850   1.379   1_554  A
C850        H852   1.082       .  S
C853        C854   1.536       .  S
C853        C859   1.530       .  S
C853        C857   1.541       .  S
C853        C890   1.511       .  S
C854        H861   1.087       .  S
C854        C855   1.365       .  D
C855        C856   1.540       .  S
C855       C1040   1.448       .  S
C856        C860   1.540       .  S
C856        C858   1.531       .  S
C856        H862   1.111       .  S
C857        H863   1.084       .  S
C857        C858   1.362       .  D
C858       C1032   1.435       .  S
C859        H864   1.087       .  S
C859        C860   1.365       .  D
C860        C925   1.473       .  S
C865        C866   1.536       .  S
C865        C871   1.530       .  S
C865        C869   1.540       .  S
C865        C880   1.511       .  S
C866        H873   1.087       .  S
C866        C867   1.366       .  D
C867        C868   1.540       .  S
C867       C1036   1.448       .  S
C868        C872   1.540       .  S
C868        C870   1.531       .  S
C868        H874   1.111       .  S
C869        H875   1.084       .  S
C869        C870   1.362       .  D
C870       C1029   1.433       .  S
C871        H876   1.087       .  S
C871        C872   1.366       .  D
C872        C926   1.473       .  S
N877        N878   1.321       .  A
N877        C881   1.345       .  A
N877       Cu885   2.072       .  S
N878        C879   1.343       .  A
N878       Cu884   2.073       .  S
C879        C880   1.387       .  A
C879        H882   1.080       .  S
C880        C881   1.386       .  A
C881        H883   1.082       .  S
Cu885       N895   2.073       .  S
Cu886       N888   2.073       .  S
Cu886       N894   2.074       .  S
N887        N888   1.321       .  A
N887        C891   1.344       .  A
N888        C889   1.346       .  A
C889        C890   1.386       .  A
C889        H892   1.082       .  S
C890        C891   1.388       .  A
C891        H893   1.080       .  S
N894        C898   1.345       .  A
N895        C896   1.345       .  A
C896        C897   1.379       .  A
C896        H899   1.082       .  S
C898        H900   1.082       .  S
O901        C911   1.279       .  A
O901       Cu909   2.024       .  S
O902        C912   1.276       .  A
O902       Cu909   2.006       .  S
O903        C913   1.276       .  A
O903       Cu909   2.012       .  S
O904        C914   1.278       .  A
O904       Cu909   2.000   1_565  S
O905        C914   1.277       .  A
O905       Cu910   2.016       .  S
O906        C913   1.279       .  A
O906       Cu910   2.005   1_545  S
O907        C912   1.276   1_565  A
O907       Cu910   2.007       .  S
O908        C911   1.280   1_565  A
O908       Cu910   2.026       .  S
Cu909      Cu910   2.376   1_545  S
C911        C927   1.480   1_455  S
C913        C991   1.473       .  S
C914        C979   1.473       .  S
O915        C925   1.277       .  A
O915       Cu923   2.014       .  S
O916        C926   1.278       .  A
O916       Cu923   2.003   1_545  S
O917        C927   1.280   1_565  A
O917       Cu923   2.026       .  S
O918        C928   1.277   1_565  A
O918       Cu923   2.007       .  S
O919        C928   1.276       .  A
O919       Cu924   2.006       .  S
O920        C927   1.279       .  A
O920       Cu924   2.024       .  S
O921        C926   1.276       .  A
O921       Cu924   2.014       .  S
O922        C925   1.278       .  A
O922       Cu924   2.003   1_565  S
Cu923      Cu924   2.376   1_565  S
C929        C930   1.536       .  S
C929        C935   1.531       .  S
C929        C933   1.540       .  S
C929        C956   1.511       .  S
C930        H937   1.087       .  S
C930        C931   1.365       .  D
C931        C932   1.540       .  S
C931       C1027   1.447       .  S
C932        C936   1.540       .  S
C932        C934   1.531       .  S
C932        H938   1.111       .  S
C933        H939   1.084       .  S
C933        C934   1.362       .  D
C934       C1038   1.434       .  S
C935        H940   1.087       .  S
C935        C936   1.366       .  D
C941        C942   1.536       .  S
C941        C947   1.530       .  S
C941        C945   1.540       .  S
C941        C966   1.511       .  S
C942        H949   1.087       .  S
C942        C943   1.366       .  D
C943        C944   1.541       .  S
C943       C1025   1.448       .  S
C944        C948   1.541       .  S
C944        C946   1.532       .  S
C944        H950   1.111       .  S
C945        H951   1.084       .  S
C945        C946   1.362       .  D
C946       C1033   1.434       .  S
C947        H952   1.087       .  S
C947        C948   1.365       .  D
N953        N954   1.321       .  A
N953        C957   1.346       .  A
N953       Cu961   2.073       .  S
N954        C955   1.344       .  A
C955        C956   1.388       .  A
C955        H958   1.080       .  S
C956        C957   1.386       .  A
C957        H959   1.082       .  S
Cu960       N963   2.073       .  S
Cu961       N971   2.073       .  S
Cu962       N964   2.072       .  S
Cu962       N970   2.073       .  S
N963        N964   1.321       .  A
N963        C967   1.343       .  A
N964        C965   1.346       .  A
C965        C966   1.386       .  A
C965        H968   1.082       .  S
C966        C967   1.387       .  A
C967        H969   1.080       .  S
N970        C974   1.345       .  A
N971        C972   1.345       .  A
C972        H975   1.082       .  S
C973        C974   1.379       .  A
C974        H976   1.082       .  S
C977        C978   1.530       .  S
C977        C983   1.536       .  S
C977        C981   1.540       .  S
C977       C1014   1.511       .  S
C978        H985   1.087       .  S
C978        C979   1.365       .  D
C979        C980   1.540       .  S
C980        C984   1.540       .  S
C980        C982   1.532       .  S
C980        H986   1.111       .  S
C981        H987   1.084       .  S
C981        C982   1.362       .  D
C982       C1031   1.435       .  S
C983        H988   1.087       .  S
C983        C984   1.365       .  D
C984       C1028   1.447       .  S
C989        C990   1.531       .  S
C989        C995   1.537       .  S
C989        C993   1.540       .  S
C989       C1004   1.511       .  S
C990        H997   1.087       .  S
C990        C991   1.366       .  D
C991        C992   1.540       .  S
C992        C996   1.540       .  S
C992        C994   1.531       .  S
C992        H998   1.111       .  S
C993        H999   1.084       .  S
C993        C994   1.362       .  D
C994       C1030   1.433       .  S
C995       H1000   1.087       .  S
C995        C996   1.366       .  D
C996       C1026   1.448       .  S
N1001      N1002   1.321       .  A
N1001      C1005   1.346       .  A
N1001     Cu1009   2.073       .  S
N1002      C1003   1.343       .  A
N1002     Cu1008   2.073       .  S
C1003      C1004   1.388       .  A
C1003      H1006   1.080       .  S
C1004      C1005   1.386       .  A
C1005      H1007   1.082       .  S
Cu1009     N1019   2.073       .  S
Cu1010     N1012   2.073       .  S
Cu1010     N1018   2.073       .  S
N1011      N1012   1.321       .  A
N1011      C1015   1.343       .  A
N1012      C1013   1.346       .  A
C1013      C1014   1.386       .  A
C1013      H1016   1.082       .  S
C1014      C1015   1.387       .  A
C1015      H1017   1.080       .  S
N1018      C1022   1.345       .  A
N1019      C1020   1.345       .  A
C1020      C1021   1.379       .  A
C1020      H1023   1.082       .  S
C1022      H1024   1.082       .  S
C1025      C1026   1.210       .  T
C1027      C1028   1.209       .  T
C1029      C1030   1.201   1_655  T
C1031      C1032   1.201   1_455  T
C1033      C1034   1.201   1_455  T
C1035      C1036   1.210       .  T
C1037      C1038   1.201   1_655  T
C1039      C1040   1.209       .  T
C1041      C1042   1.209       .  T
C1043      C1044   1.210       .  T
C1045      C1046   1.201       .  T
C1047      C1048   1.201       .  T
C1049      C1050   1.201       .  T
C1051      C1052   1.210       .  T
C1053      C1054   1.201       .  T
C1055      C1056   1.209       .  T
