geometry optimzed in LAMMPS
_audit_creation_date              2020-12-01 
_audit_creation_method            'lammps2cif' 
_symmetry_space_group_name_H-M    'P1' 
_symmetry_Int_Tables_number       1 
_symmetry_cell_setting            triclinic 
loop_ 
_symmetry_equiv_pos_as_xyz 
  x,y,z 
_cell_length_a                    39.15009309 
_cell_length_b                    38.08103037843916 
_cell_length_c                    85.18402479326781 
_cell_angle_alpha                 90.79979266717542 
_cell_angle_beta                  91.77679324097271 
_cell_angle_gamma                 119.47844879093331 
loop_ 
_atom_site_label 
_atom_site_type_symbol 
_atom_site_fract_x 
_atom_site_fract_y 
_atom_site_fract_z 
_atom_site_charge 
C1          C  0.09106329  0.21111302  0.08570267     0.79900
N2          N  0.05692987  0.21255898  0.08490856    -0.78400
C3          C  0.52225649  0.18163796  0.07607739     0.82300
N4          N  0.02988011  0.15861911  0.06643295    -0.78400
C5          C  0.06356532  0.15680324  0.06687113     0.82400
N6          N  0.09427235  0.18325800  0.07652936    -0.80100
C7          C  0.47209408  0.32209238  0.06029268     0.79900
N8          N  0.47297136  0.28681807  0.06054525    -0.78400
C9          C  0.45336776  0.25947421  0.07158483     0.82300
N10         N  0.43322964  0.26750219  0.08235570    -0.78400
C11         C  0.43290546  0.30291693  0.08239301     0.82400
N12         N  0.45221696  0.33015404  0.07130027    -0.80100
C13         C  0.31364732  0.07345445  0.06397972     0.79900
N14         N  0.31109179  0.54165438  0.07407776    -0.78400
C15         C  0.34025019  0.04790249  0.08287153     0.82300
N16         N  0.37512741  0.08274185  0.08282689    -0.78400
C17         C  0.37934411  0.11294656  0.07338815     0.82400
N18         N  0.34860005  0.10831118  0.06402362    -0.80100
C19         C  0.41699353  0.15029858  0.07325540     0.79900
N20         N  0.45099263  0.14915047  0.07468017    -0.78400
C21         C  0.48603767  0.18379591  0.07482278     0.82300
N22         N  0.48710644  0.21985566  0.07350424    -0.78400
C23         C  0.45300798  0.22099369  0.07195603     0.82400
N24         N  0.41806095  0.18624032  0.07192130    -0.80100
C25         C  0.39057680  0.41766349  0.91225084     0.79900
N26         N  0.39362335  0.44544654  0.90170239    -0.78400
C27         C  0.36272582  0.43857533  0.89190524     0.82300
N28         N  0.32783992  0.40399455  0.89305956    -0.78400
C29         C  0.32421414  0.37595186  0.90354296     0.82400
N30         N  0.35567618  0.38273075  0.91298190    -0.80100
C31         C  0.23375810  0.16714225  0.91855954     0.79900
N32         N  0.25339599  0.15897601  0.90758617    -0.78400
C33         C  0.27190906  0.18489173  0.89603363     0.82300
N34         N  0.27124986  0.22022950  0.89569002    -0.78400
C35         C  0.25149859  0.22888035  0.90659062     0.82400
N36         N  0.23243701  0.20213627  0.91796932    -0.80100
C37         C  0.25160525  0.26743226  0.90619692     0.79900
N38         N  0.28610293  0.30243890  0.90525669    -0.78400
C39         C  0.28656106  0.33828264  0.90459586     0.82300
N40         N  0.25213323  0.33899036  0.90483971    -0.78400
C41         C  0.21745831  0.30398892  0.90580473     0.82400
N42         N  0.21733509  0.26827507  0.90644856    -0.80100
C43         C  0.11562472  0.28038867  0.89522503     0.79900
N44         N  0.15021525  0.28002559  0.89550429    -0.78400
C45         C  0.18008128  0.30443696  0.90580034     0.82300
N46         N  0.17509769  0.32898181  0.91608313    -0.78400
C47         C  0.14037835  0.32913471  0.91616886     0.82400
N48         N  0.11079654  0.30476024  0.90570351    -0.80100
O49         O  0.50320496  0.45639575  0.97451457    -0.81200
O50         O  0.15403159  0.02032951  0.02060785    -0.65900
O51         O  0.07810599  0.00886838  0.98876414    -1.12500
C52         C  0.12898223  0.43650474  0.96242389     1.05700
O53         O  0.19826801  0.03852571  0.00282222    -0.79100
O54         O  0.18458146  0.03161085  0.97195402    -0.66700
Ni55       Ni  0.02515577  0.99041659  0.99424544     1.34900
C56         C  0.16284835  0.04114271  0.96388144     0.84400
O57         O  0.10616566  0.05084266  0.01767256    -0.79700
O58         O  0.04165579  0.02555625  0.01291000    -0.89900
C59         C  0.18960726  0.03558328  0.01709987     0.84000
O60         O  0.02261963  0.44776781  0.00533512    -0.68100
O61         O  0.15880833  0.45436794  0.97192975    -0.87400
C62         C  0.04552722  0.44740046  0.01611158     0.84800
C63         C  0.07387463  0.04949235  0.02044975     1.06400
H64         H  0.11374728  0.45666968  0.99694078     0.38200
O65         O  0.12493192  0.48266903  0.99215905    -1.10100
O66         O  0.12563564  0.02257377  0.96465993    -0.66700
Ni67       Ni  0.08943045  0.47877217  0.97542754     1.26300
O68         O  0.08140779  0.47475811  0.01784537    -0.67000
O69         O  0.10045901  0.44402525  0.96214291    -0.79200
C70         C  0.01555564  0.46227460  0.96216841     0.84200
O71         O  0.05147673  0.47460850  0.95963471    -0.66400
Ni72       Ni  0.17754514  0.49717293  0.98753662     1.27400
Ni73       Ni  0.11514832  0.01468281  0.00514707     1.26100
H74         H  0.08733071  0.03489375  0.98415936     0.38700
C75         C  0.40593624  0.35863118  0.72490606     0.79900
N76         N  0.44006429  0.39445497  0.72612827    -0.78400
C77         C  0.47055180  0.39860511  0.73545462     0.82300
N78         N  0.46692418  0.36696521  0.74368085    -0.78400
C79         C  0.43302143  0.33111704  0.74281437     0.82400
N80         N  0.40237100  0.32703815  0.73342262    -0.80100
C81         C  0.15614257  0.44502403  0.73389597     0.79900
N82         N  0.12064312  0.44359814  0.73290336    -0.78400
C83         C  0.11601747  0.97238918  0.73846842     0.82300
N84         N  0.14590037  0.00032329  0.74797651    -0.78400
C85         C  0.18049103  0.00017839  0.74940603     0.82400
N86         N  0.18511574  0.97254621  0.74091878    -0.80100
C87         C  0.02247208  0.08965281  0.74709673     0.79900
N88         N  0.04355078  0.11733095  0.73632459    -0.78400
C89         C  0.06463424  0.10951824  0.72585318     0.82300
N90         N  0.06511436  0.07424279  0.72644693    -0.78400
C91         C  0.04388571  0.04637102  0.73697240     0.82400
N92         N  0.02249220  0.05397375  0.74733281    -0.80100
C93         C  0.07870378  0.97248633  0.73703929     0.79900
N94         N  0.04340067  0.43643396  0.73744823    -0.78400
C95         C  0.00891715  0.43679877  0.73616281     0.82300
N96         N  0.00954370  0.97293536  0.73480124    -0.78400
C97         C  0.04385297  0.00813840  0.73678357     0.82400
N98         N  0.07838782  0.00791587  0.73780723    -0.80100
O99         O  0.00119608  0.20278135  0.83331731    -0.81200
O100        O  0.34292198  0.11270691  0.79193985    -0.65900
O101        O  0.42137355  0.18003806  0.82304827    -1.12500
C102        C  0.37360729  0.05619194  0.84957921     1.05700
O103        O  0.29823363  0.08382140  0.80952993    -0.79100
O104        O  0.31726523  0.10048287  0.84034316    -0.66700
Ni105      Ni  0.47347207  0.21469964  0.81636314     1.34900
C106        C  0.34134616  0.13000709  0.84917079     0.84400
O107        O  0.39012235  0.19158249  0.79485794    -0.79700
O108        O  0.45526739  0.22862889  0.79736195    -0.89900
C109        C  0.30745928  0.09063820  0.79530028     0.84000
O110        O  0.47792996  0.17318289  0.80559429    -0.68100
O111        O  0.34218935  0.04516225  0.84120779    -0.87400
C112        C  0.45396050  0.14783437  0.79537324     0.84800
C113        C  0.42245999  0.22033503  0.79065260     1.06400
H114        H  0.38529966  0.08805437  0.81452851     0.38200
O115        O  0.37553958  0.10375168  0.81981155    -1.10100
O116        O  0.37843924  0.14603897  0.84845898    -0.66700
Ni117      Ni  0.41345786  0.13598402  0.83601833     1.26300
O118        O  0.41796631  0.13860613  0.79411539    -0.67000
O119        O  0.40420862  0.09062262  0.84849652    -0.79200
C120        C  0.99038963  0.19553673  0.84743229     0.84200
O121        O  0.45345240  0.16953390  0.85130133    -0.66400
Ni122      Ni  0.32303593  0.06674019  0.82525016     1.27400
Ni123      Ni  0.38268389  0.14722744  0.80706598     1.26100
H124        H  0.41261998  0.19672077  0.82825965     0.38700
C125        C  0.29503700  0.18408520  0.57549763     0.79900
N126        N  0.32833479  0.18146605  0.57706732    -0.78400
C127        C  0.33382622  0.15564911  0.56767205     0.82300
N128        N  0.30576560  0.13210524  0.55651049    -0.78400
C129        C  0.27292549  0.13549895  0.55456670     0.82400
N130        N  0.26783567  0.16120116  0.56406759    -0.80100
C131        C  0.03964368  0.26658035  0.58811382     0.79900
N132        N  0.04676987  0.29730958  0.57846668    -0.78400
C133        C  0.01834166  0.29472615  0.56820797     0.82300
N134        N  0.98266024  0.26067024  0.56734144    -0.78400
C135        C  0.97567755  0.22922437  0.57660109     0.82400
N136        N  0.00426427  0.23219279  0.58687481    -0.80100
C137        C  0.42902205  0.03663739  0.56441441     0.79900
N138        N  0.40347851  0.00652398  0.57344929    -0.78400
C139        C  0.37702897  0.01143619  0.58184821     0.82300
N140        N  0.37614994  0.04664079  0.58095779    -0.78400
C141        C  0.40158076  0.07673120  0.57201925     0.82400
N142        N  0.42808195  0.07174138  0.56388138    -0.80100
C143        C  0.37001094  0.15342561  0.56976955     0.79900
N144        N  0.36878815  0.11715984  0.56983243    -0.78400
C145        C  0.40251647  0.11555098  0.57203758     0.82300
N146        N  0.43743935  0.15019814  0.57417925    -0.78400
C147        C  0.43870946  0.18642901  0.57422344     0.82400
N148        N  0.40498635  0.18793380  0.57195030    -0.80100
O149        O  0.15601303  0.20999707  0.66607573    -0.81200
O150        O  0.27024506  0.36211273  0.62745733    -0.65900
O151        O  0.22322733  0.27775523  0.65639364    -1.12500
C152        C  0.20217815  0.36750960  0.68689468     1.05700
O153        O  0.29260286  0.41469565  0.64432706    -0.79100
O154        O  0.29525251  0.37972632  0.67157634    -0.66700
Ni155      Ni  0.18563881  0.22583514  0.64747154     1.34900
C156        C  0.28527535  0.35192653  0.68138220     0.84400
O157        O  0.26670697  0.29143955  0.62981927    -0.79700
O158        O  0.21112112  0.23291284  0.62777455    -0.89900
C159        C  0.29056589  0.39956871  0.63069614     0.84000
O160        O  0.15318671  0.24585268  0.63920343    -0.68100
O161        O  0.23650693  0.39188413  0.68252872    -0.87400
C162        C  0.16378276  0.27357433  0.62931838     0.84800
C163        C  0.24541570  0.25688442  0.62330889     1.06400
H164        H  0.20526354  0.34870831  0.64836328     0.38200
O165        O  0.22573457  0.34659157  0.65415927    -1.10100
O166        O  0.24931759  0.32527968  0.68288959    -0.66700
Ni167      Ni  0.20262109  0.30481900  0.66887916     1.26300
O168        O  0.19988076  0.29945516  0.62776102    -0.67000
O169        O  0.18179266  0.33250808  0.68065437    -0.79200
C170        C  0.15757353  0.22487336  0.67970356     0.84200
O171        O  0.17884616  0.26214378  0.68307158    -0.66400
Ni172      Ni  0.26257228  0.39889418  0.66292751     1.27400
Ni173      Ni  0.24645424  0.31953488  0.64169575     1.26100
H174        H  0.24352166  0.27531906  0.66218343     0.38700
C175        C  0.36353403  0.29734179  0.40491373     0.79900
N176        N  0.32932837  0.29841116  0.40359293    -0.78400
C177        C  0.32378180  0.32469396  0.41275707     0.82300
N178        N  0.35259709  0.35011685  0.42331300    -0.78400
C179        C  0.38654819  0.34874847  0.42479369     0.82400
N180        N  0.39169090  0.32268319  0.41556930    -0.80100
C181        C  0.11690977  0.21735671  0.39432679     0.79900
N182        N  0.15169373  0.25240411  0.39586873    -0.78400
C183        C  0.18078061  0.25565582  0.40585534     0.82300
N184        N  0.17478624  0.22396695  0.41466583    -0.78400
C185        C  0.13974432  0.18912531  0.41379558     0.82400
N186        N  0.11087959  0.18606063  0.40356846    -0.80100
C187        C  0.23057588  0.44525137  0.41641690     0.79900
N188        N  0.23007426  0.40932021  0.41651202    -0.78400
C189        C  0.25551420  0.40340127  0.40791784     0.82300
N190        N  0.28082902  0.43323979  0.39875543    -0.78400
C191        C  0.28085303  0.46901513  0.39803484     0.82400
N192        N  0.25580697  0.47476440  0.40708549    -0.80100
C193        C  0.28735556  0.32659018  0.41078000     0.79900
N194        N  0.28847716  0.36284345  0.41023992    -0.78400
C195        C  0.25463233  0.36437093  0.40822142     0.82300
N196        N  0.21967830  0.32950783  0.40676697    -0.78400
C197        C  0.21846929  0.29327078  0.40725911     0.82400
N198        N  0.25233233  0.29193054  0.40927138    -0.80100
O199        O  0.06038186  0.39501927  0.50554585    -0.81200
O200        O  0.09614428  0.03859122  0.46063191    -0.65900
O201        O  0.09539492  0.47013773  0.49188642    -1.12500
C202        C  0.02852684  0.02111568  0.52175037     1.05700
O203        O  0.10419122  0.08951765  0.47641363    -0.79100
O204        O  0.12781433  0.07415611  0.50442568    -0.66700
Ni205      Ni  0.07903548  0.41561517  0.48533508     1.34900
C206        C  0.13238823  0.05288773  0.51473804     0.84400
O207        O  0.12976671  0.49461999  0.46312671    -0.79700
O208        O  0.09807964  0.42814963  0.46433586    -0.89900
C209        C  0.10475749  0.07493893  0.46294203     0.84000
O210        O  0.02868748  0.40703544  0.47873366    -0.68100
O211        O  0.05481108  0.05381547  0.51607997    -0.87400
C212        C  0.02210128  0.42575908  0.46790719     0.84800
C213        C  0.12424089  0.46038427  0.45851043     1.06400
H214        H  0.03542162  0.00228105  0.48406454     0.38200
O215        O  0.06110753  0.01287460  0.48918731    -1.10100
O216        O  0.10460203  0.01785165  0.51777356    -0.66700
Ni217      Ni  0.06065300  0.47878869  0.50489391     1.26300
O218        O  0.04798417  0.46137105  0.46427695    -0.67000
O219        O  0.02613385  0.48872223  0.51708917    -0.79200
C220        C  0.05602462  0.40813292  0.51867834     0.84200
O221        O  0.05814739  0.44225614  0.52053724    -0.66400
Ni222      Ni  0.07945750  0.06777421  0.49592623     1.27400
Ni223      Ni  0.09533081  0.00349759  0.47636626     1.26100
H224        H  0.12144938  0.48191383  0.49675456     0.38700
C225        C  0.49847487  0.54158696  0.24319987     0.79900
N226        N  0.53299231  0.54130354  0.24464573    -0.78400
C227        C  0.53833113  0.51348877  0.23658699     0.82300
N228        N  0.50868592  0.48540678  0.22699318    -0.78400
C229        C  0.47405211  0.48557643  0.22525940     0.82400
N230        N  0.46942793  0.51371068  0.23339973    -0.80100
C231        C  0.24529214  0.11764769  0.25743848     0.79900
N232        N  0.25221957  0.14981255  0.24869732    -0.78400
C233        C  0.22426850  0.14838425  0.23842855     0.82300
N234        N  0.18890019  0.11395986  0.23692843    -0.78400
C235        C  0.18168276  0.08141101  0.24555165     0.82400
N236        N  0.20999407  0.08328626  0.25574765    -0.80100
C237        C  0.08235932  0.36988449  0.25087825     0.79900
N238        N  0.08421726  0.40653228  0.25093362    -0.78400
C239        C  0.10783334  0.43536305  0.24104809     0.82300
N240        N  0.12945606  0.42742509  0.23092215    -0.78400
C241        C  0.12753773  0.39075765  0.23059900     0.82400
N242        N  0.10402824  0.36230848  0.24063722    -0.80100
C243        C  0.07554200  0.51141237  0.23830266     0.79900
N244        N  0.07505474  0.47553868  0.23859170    -0.78400
C245        C  0.10891899  0.47440342  0.24095552     0.82300
N246        N  0.14355405  0.50942572  0.24307417    -0.78400
C247        C  0.14430584  0.54552165  0.24287254     0.82400
N248        N  0.11022424  0.54641162  0.24045704    -0.80100
O249        O  0.35105319  0.31609926  0.14481423    -0.81200
O250        O  0.24166339  0.35129709  0.18811071    -0.65900
O251        O  0.28192839  0.30846108  0.15736351    -1.12500
C252        C  0.29746188  0.42336108  0.12960249     1.05700
O253        O  0.20338656  0.35486088  0.16949706    -0.79100
O254        O  0.20819196  0.34655625  0.13842331    -0.66700
Ni255      Ni  0.32161427  0.29531115  0.16333968     1.34900
C256        C  0.21405026  0.32128517  0.13077275     0.84400
O257        O  0.24863795  0.28509311  0.18699368    -0.79700
O258        O  0.29676920  0.27138338  0.18242669    -0.89900
C259        C  0.21341242  0.35702570  0.18394151     0.84000
O260        O  0.35531065  0.34526231  0.17404838    -0.68100
O261        O  0.27176690  0.42337253  0.13845026    -0.87400
C262        C  0.34778055  0.36630569  0.18348721     0.84800
C263        C  0.26805977  0.26731031  0.19032699     1.06400
H264        H  0.29933832  0.39659195  0.16400942     0.38200
O265        O  0.27694075  0.37268556  0.15940873    -1.10100
O266        O  0.24609893  0.32052803  0.13201744    -0.66700
Ni267      Ni  0.29570598  0.35225261  0.14337393     1.26300
O268        O  0.31298385  0.36058291  0.18491894    -0.67000
O269        O  0.30869561  0.39705345  0.12998412    -0.79200
C270        C  0.34317191  0.32289084  0.13097614     0.84200
O271        O  0.31613920  0.33132732  0.12813699    -0.66400
Ni272      Ni  0.23864011  0.38806221  0.15399723     1.27400
Ni273      Ni  0.26273677  0.32933784  0.17338565     1.26100
H274        H  0.25991072  0.28414817  0.15282223     0.38700
O275        O  0.36914598  0.06302269  0.33705458    -0.81200
O276        O  0.47150253  0.21859556  0.29628350    -0.65900
O277        O  0.43133472  0.13340168  0.32563889    -1.12500
C278        C  0.41206860  0.22322787  0.35723720     1.05700
O279        O  0.00364713  0.26874649  0.31335831    -0.79100
O280        O  0.50389379  0.23529580  0.34229417    -0.66700
Ni281      Ni  0.39392234  0.08054608  0.31730552     1.34900
C282        C  0.49363314  0.20708134  0.35192627     0.84400
O283        O  0.46979486  0.14780215  0.29746138    -0.79700
O284        O  0.41503621  0.08853168  0.29664487    -0.89900
C285        C  0.99751837  0.25578606  0.29914398     0.84000
O286        O  0.35841219  0.09874879  0.31062466    -0.68100
O287        O  0.44458243  0.24866052  0.35165081    -0.87400
C288        C  0.36669432  0.12610520  0.30064438     0.84800
C289        C  0.44806779  0.11297358  0.29124581     1.06400
H290        H  0.41219774  0.20452405  0.31924936     0.38200
O291        O  0.43314886  0.20190795  0.32437354    -1.10100
O292        O  0.45803309  0.17926580  0.35272166    -0.66700
Ni293      Ni  0.41123933  0.15972896  0.33901554     1.26300
O294        O  0.40204343  0.15344607  0.29843434    -0.67000
O295        O  0.39184201  0.18731785  0.35171237    -0.79200
C296        C  0.37061496  0.07896713  0.35044114     0.84200
O297        O  0.38824416  0.11672133  0.35314599    -0.66400
Ni298      Ni  0.47178185  0.25403218  0.33258658     1.27400
Ni299      Ni  0.45136219  0.17526184  0.31066828     1.26100
H300        H  0.45302695  0.13206715  0.33088355     0.38700
C301        C  0.01865139  0.28507618  0.28669879    -0.00500
C302        C  0.02317297  0.27083739  0.27201599    -0.12400
C303        C  0.04316178  0.29752095  0.26007955     0.01800
C304        C  0.05901595  0.33963920  0.26264839    -0.00600
C305        C  0.05367112  0.35370925  0.27716144    -0.12300
C306        C  0.03402669  0.32725120  0.28910281     0.01600
H307        H  0.50804578  0.23892489  0.27030788     0.14600
H308        H  0.06559153  0.38584660  0.27936593     0.14600
C309        C  0.02980569  0.34474131  0.30357393     0.36300
C310        C  0.04595737  0.28056044  0.24522600     0.36200
N311        N  0.02661594  0.35891804  0.31515665    -0.44100
N312        N  0.04816907  0.26691104  0.23332970    -0.44100
C313        C  0.19133209  0.36554344  0.19582273    -0.00500
C314        C  0.18482854  0.34693024  0.21036762    -0.12400
C315        C  0.16391744  0.35427090  0.22183120     0.01800
C316        C  0.14979057  0.38153733  0.21895329    -0.00600
C317        C  0.15672584  0.40039621  0.20443896    -0.12300
C318        C  0.17687860  0.39244721  0.19289101     0.01600
H319        H  0.19574738  0.32620894  0.21272551     0.14600
H320        H  0.14593611  0.42117997  0.20198599     0.14600
C321        C  0.18325237  0.41334331  0.17831238     0.36300
C322        C  0.15836051  0.33411332  0.23653585     0.36200
N323        N  0.18829678  0.42999841  0.16662107    -0.44100
N324        N  0.15376372  0.31785596  0.24830442    -0.44100
C325        C  0.25734318  0.24038966  0.20393810    -0.00500
C326        C  0.21809408  0.21909187  0.20836211    -0.12400
C327        C  0.20656348  0.19010433  0.22003048     0.01800
C328        C  0.23466697  0.18210852  0.22753635    -0.00600
C329        C  0.27423540  0.20566404  0.22388795    -0.12300
C330        C  0.28575965  0.23436514  0.21229742     0.01600
H331        H  0.19612910  0.22416263  0.20237340     0.14600
H332        H  0.29645983  0.20087379  0.22975819     0.14600
C333        C  0.32717893  0.25717013  0.20935556     0.36300
C334        C  0.16596672  0.16962824  0.22421634     0.36200
N335        N  0.36033822  0.27527476  0.20700551    -0.44100
N336        N  0.13346721  0.15335113  0.22763430    -0.44100
C337        C  0.27640233  0.11989472  0.26843784    -0.00500
C338        C  0.26659201  0.10493924  0.28358546    -0.12400
C339        C  0.29542116  0.10747942  0.29449473     0.01800
C340        C  0.33493830  0.12473691  0.29018740    -0.00600
C341        C  0.34455224  0.13969168  0.27501834    -0.12300
C342        C  0.31591134  0.13739385  0.26419220     0.01600
H343        H  0.23640677  0.09194589  0.28701372     0.14600
H344        H  0.37456067  0.15235157  0.27139284     0.14600
C345        C  0.32781471  0.15132554  0.24856026     0.36300
C346        C  0.28382262  0.09361001  0.31014849     0.36200
N347        N  0.33784696  0.16238394  0.23607002    -0.44100
N348        N  0.27450447  0.08268614  0.32271615    -0.44100
C349        C  0.44137530  0.45517036  0.21470750    -0.00500
C350        C  0.45047066  0.43901764  0.20162113    -0.12400
C351        C  0.42097757  0.41081924  0.19117041     0.01800
C352        C  0.38080943  0.39793799  0.19365668    -0.00600
C353        C  0.37183810  0.41424909  0.20675709    -0.12300
C354        C  0.40132379  0.44215084  0.21726279     0.01600
H355        H  0.48094854  0.44874335  0.19942336     0.14600
H356        H  0.34141593  0.40437860  0.20911259     0.14600
C357        C  0.38896658  0.45491379  0.23097611     0.36300
C358        C  0.43338442  0.39614316  0.17801197     0.36200
N359        N  0.37849038  0.46456315  0.24194835    -0.44100
N360        N  0.44351629  0.38438862  0.16753376    -0.44100
C361        C  0.48991000  0.56782522  0.25369724    -0.00500
C362        C  0.44711450  0.05622989  0.25412131    -0.12400
C363        C  0.43419771  0.07263087  0.26573072     0.01800
C364        C  0.46118866  0.09972769  0.27734829    -0.00600
C365        C  0.50378674  0.61092219  0.27719694    -0.12300
C366        C  0.51677754  0.59425945  0.26563255     0.01600
H367        H  0.42556730  0.03507328  0.24553531     0.14600
H368        H  0.52394603  0.62937484  0.28675011     0.14600
C369        C  0.55757392  0.60462257  0.26664707     0.36300
C370        C  0.39281531  0.06018548  0.26556157     0.36200
N371        N  0.59038752  0.61334447  0.26753594    -0.44100
N372        N  0.87029893  0.06844854  0.26041369    -0.44100
C373        C  0.34986766  0.05219881  0.36336146    -0.00500
C374        C  0.32277915  0.05870519  0.37144703    -0.12400
C375        C  0.30502131  0.53622060  0.38394699     0.01800
C376        C  0.30625879  0.50004264  0.38662477    -0.00600
C377        C  0.33116316  0.49206458  0.37740565    -0.12300
C378        C  0.35275872  0.51775854  0.36549019     0.01600
H379        H  0.31831796  0.08372682  0.36830904     0.14600
H380        H  0.33327246  0.46505951  0.37919756     0.14600
C381        C  0.37721368  0.50734956  0.35638914     0.36300
C382        C  0.26981988  0.03898596  0.38935306     0.36200
N383        N  0.39677871  0.49900882  0.34907493    -0.44100
N384        N  0.24567245  0.04458628  0.39432678    -0.44100
C385        C  0.20281703  0.45127241  0.42613622    -0.00500
C386        C  0.16469199  0.41874290  0.42752655    -0.12400
C387        C  0.13792397  0.42165429  0.43726622     0.01800
C388        C  0.14929318  0.45764458  0.44621989    -0.00600
C389        C  0.18697138  0.49075067  0.44433538    -0.12300
C390        C  0.21366641  0.48787553  0.43448350     0.01600
H391        H  0.15569314  0.39073789  0.42094513     0.14600
H392        H  0.19505992  0.01933872  0.45037034     0.14600
C393        C  0.25279292  0.52206803  0.43409937     0.36300
C394        C  0.09882421  0.38731460  0.43758365     0.36200
N395        N  0.28054690  0.05197431  0.43099312    -0.44100
N396        N  0.06744551  0.35988330  0.43780435    -0.44100
C397        C  0.08577321  0.21344667  0.38272578    -0.00500
C398        C  0.04628859  0.18505163  0.38505799    -0.12400
C399        C  0.01591402  0.18110650  0.37467629     0.01800
C400        C  0.02469457  0.20624330  0.36154907    -0.00600
C401        C  0.06434334  0.23374859  0.35903555    -0.03900
C402        C  0.09459684  0.23738188  0.36928351     0.01600
H403        H  0.03892274  0.16612351  0.39519340     0.14600
H404        H  0.07205589  0.25277006  0.34892340     0.14600
C405        C  0.13443331  0.26517686  0.36526740     0.36300
C406        C  0.97624156  0.15127115  0.37805473     0.36200
N407        N  0.16631744  0.28739502  0.36200818    -0.44100
N408        N  0.44526089  0.14590780  0.38680841    -0.44100
C409        C  0.13245305  0.15688971  0.42513707    -0.00500
C410        C  0.15786703  0.16722486  0.43857660    -0.12400
C411        C  0.15024224  0.14015327  0.45061344     0.01800
C412        C  0.11631379  0.10193288  0.44954302    -0.00600
C413        C  0.09239066  0.09011225  0.43572493    -0.12300
C414        C  0.10028346  0.11701931  0.42348280     0.01600
H415        H  0.18350382  0.19697900  0.43996833     0.14600
H416        H  0.06691054  0.06013479  0.43466215     0.14600
C417        C  0.07535107  0.10239026  0.40935468     0.36300
C418        C  0.17831882  0.15176924  0.46375696     0.36200
N419        N  0.05545086  0.09030720  0.39801572    -0.44100
N420        N  0.20095634  0.16069952  0.47420642    -0.44100
C421        C  0.37310103  0.27289827  0.39381324    -0.00500
C422        C  0.41259094  0.28202971  0.39348692    -0.12400
C423        C  0.42513525  0.26428500  0.38230707     0.01800
C424        C  0.39819142  0.23693439  0.37076990    -0.00600
C425        C  0.35819959  0.22507585  0.37171469    -0.12300
C426        C  0.34539644  0.24255256  0.38314850     0.01600
H427        H  0.43446630  0.30404551  0.40178392     0.14600
H428        H  0.33707395  0.20314691  0.36317702     0.14600
C429        C  0.30381194  0.22832045  0.38365559     0.36300
C430        C  0.46595420  0.27443866  0.38313946     0.36200
N431        N  0.27037779  0.21645515  0.38405225    -0.44100
N432        N  0.49859135  0.28248655  0.38390339    -0.44100
C433        C  0.41950639  0.37678344  0.43544621    -0.00500
C434        C  0.41630212  0.37277285  0.45175369    -0.12400
C435        C  0.44989097  0.39212837  0.46187925     0.01800
C436        C  0.48728159  0.41561166  0.45561493    -0.00600
C437        C  0.48975911  0.42225018  0.43942518    -0.12300
C438        C  0.45633040  0.40298378  0.42935567     0.01600
H439        H  0.38795900  0.35298769  0.45650384     0.14600
H440        H  0.98522463  0.45937804  0.45162982     0.14600
C441        C  0.46056952  0.40958228  0.41269981     0.36300
C442        C  0.44534158  0.38778095  0.47861398     0.36200
N443        N  0.46371292  0.41482008  0.39934927    -0.44100
N444        N  0.44189575  0.38474800  0.49204864    -0.44100
C445        C  0.31293210  0.42718615  0.61814910    -0.00500
C446        C  0.32777408  0.41360591  0.60609740    -0.12400
C447        C  0.34971409  0.43935270  0.59422373     0.01800
C448        C  0.35253047  0.98126091  0.59339660    -0.00600
C449        C  0.34168067  0.99532681  0.60659727    -0.12300
C450        C  0.32035265  0.96956644  0.61840488     0.01600
H451        H  0.32262355  0.38288292  0.60605071     0.14600
H452        H  0.35047100  0.02707208  0.60791847     0.14600
C453        C  0.31012877  0.98714052  0.63132234     0.36300
C454        C  0.36383319  0.42310847  0.58224139     0.36200
N455        N  0.30214407  0.00152826  0.64162038    -0.44100
N456        N  0.37493691  0.40953976  0.57275966    -0.44100
C457        C  0.95521747  0.03410662  0.55603116    -0.00500
C458        C  0.44637536  0.99377529  0.54795063    -0.12400
C459        C  0.47109951  0.98869672  0.53774152     0.01800
C460        C  0.00346161  0.02366948  0.53417794    -0.00600
C461        C  0.01645789  0.06084300  0.54227435    -0.12300
C462        C  0.99297620  0.06628411  0.55304721     0.01600
H463        H  0.41749749  0.96848650  0.54983619     0.14600
H464        H  0.04510891  0.08615459  0.54008233     0.14600
C465        C  0.00872868  0.10524351  0.56102680     0.36300
C466        C  0.46364047  0.44765602  0.53291637     0.36200
N467        N  0.02117685  0.13639948  0.56743814    -0.44100
N468        N  0.45430760  0.41498453  0.52874718    -0.44100
C469        C  0.07115319  0.26984405  0.59917492    -0.00500
C470        C  0.11027354  0.29116445  0.59467744    -0.12400
C471        C  0.14103641  0.29357489  0.60432149     0.01800
C472        C  0.13294891  0.27455376  0.61897270    -0.00600
C473        C  0.09386605  0.25437965  0.62366118    -0.12300
C474        C  0.06316392  0.25194119  0.61399164     0.01600
H475        H  0.11681090  0.30510815  0.58333496     0.14600
H476        H  0.08711551  0.24031434  0.63497558     0.14600
C477        C  0.02401025  0.23194455  0.61984005     0.36300
C478        C  0.18017516  0.31432788  0.59847009     0.36200
N479        N  0.99271502  0.21599151  0.62459794    -0.44100
N480        N  0.21151538  0.33092606  0.59376654    -0.44100
C481        C  0.04835903  0.38181014  0.53224181    -0.00500
C482        C  0.01832009  0.37552105  0.54237314    -0.12400
C483        C  0.00782300  0.34722074  0.55425950     0.01800
C484        C  0.02850855  0.32591212  0.55640930    -0.00600
C485        C  0.05948295  0.33346839  0.54672056    -0.12300
C486        C  0.06917323  0.36060291  0.53459108     0.01600
H487        H  0.00214664  0.39159732  0.54064109     0.14600
H488        H  0.07545378  0.31711870  0.54834470     0.14600
C489        C  0.10063961  0.36601860  0.52470433     0.36300
C490        C  0.97607456  0.34072363  0.56414487     0.36200
N491        N  0.12564035  0.37017552  0.51670442    -0.44100
N492        N  0.43646062  0.23919043  0.53388065    -0.44100
C493        C  0.26013823  0.24354372  0.60997901    -0.00500
C494        C  0.29856611  0.24973511  0.61088471    -0.12400
C495        C  0.31151985  0.23205040  0.59964510     0.01800
C496        C  0.28587498  0.20831762  0.58687913    -0.00600
C497        C  0.24839932  0.20495782  0.58550601    -0.12300
C498        C  0.23528394  0.22169758  0.59690808     0.01600
H499        H  0.31788695  0.26667416  0.62087381     0.14600
H500        H  0.22825428  0.18776717  0.57576574     0.14600
C501        C  0.19585552  0.21548192  0.59492538     0.36300
C502        C  0.35062180  0.23774649  0.60203618     0.36200
N503        N  0.16418949  0.21019435  0.59329561    -0.44100
N504        N  0.38191248  0.24226138  0.60411132    -0.44100
C505        C  0.17105625  0.07081133  0.52380840    -0.00500
C506        C  0.19988779  0.11059849  0.52063539    -0.12400
C507        C  0.23471752  0.13109959  0.52986597     0.01800
C508        C  0.24205036  0.11174929  0.54240459    -0.00600
C509        C  0.21509841  0.07127135  0.54498763    -0.12300
C510        C  0.17977055  0.05065290  0.53589008     0.01600
H511        H  0.19470286  0.12666760  0.51128894     0.14600
H512        H  0.22059120  0.05645251  0.55474682     0.14600
C513        C  0.15281935  0.00958394  0.53980519     0.36300
C514        C  0.26187376  0.17270770  0.52666412     0.36200
N515        N  0.13158996  0.97674012  0.54317252    -0.44100
N516        N  0.28357202  0.20605924  0.52411322    -0.44100
C517        C  0.13337336  0.19663119  0.69186437    -0.00500
C518        C  0.11461880  0.15502100  0.68809997    -0.12400
C519        C  0.09190690  0.12641783  0.69883741     0.01800
C520        C  0.08705812  0.13900491  0.71387840    -0.00600
C521        C  0.10487896  0.18049177  0.71764218    -0.12300
C522        C  0.12819974  0.20932312  0.70690533     0.01600
H523        H  0.11784581  0.14435681  0.67666865     0.14600
H524        H  0.10140357  0.19045529  0.72917692     0.14600
C525        C  0.14648914  0.25137876  0.71182159     0.36300
C526        C  0.07346098  0.08438467  0.69382403     0.36200
N527        N  0.16126239  0.28502918  0.71584164    -0.44100
N528        N  0.05899173  0.05081695  0.68972163    -0.44100
C529        C  0.00120212  0.09922948  0.75891905    -0.00500
C530        C  0.00682708  0.09374121  0.77486970    -0.12400
C531        C  0.99089389  0.10688548  0.78658213     0.01800
C532        C  0.46926014  0.13043736  0.78377839    -0.00600
C533        C  0.46121719  0.13251691  0.76775409    -0.12300
C534        C  0.47877694  0.12098039  0.75619864     0.01600
H535        H  0.02493039  0.08056517  0.77821384     0.14600
H536        H  0.44236075  0.14471319  0.76425249     0.14600
C537        C  0.47030585  0.12480043  0.73989537     0.36300
C538        C  0.99782200  0.10102356  0.80283144     0.36200
N539        N  0.46358981  0.12794665  0.72682788    -0.44100
N540        N  0.00326561  0.09607223  0.81583887    -0.44100
C541        C  0.21285611  0.02847392  0.76046231    -0.00500
C542        C  0.25172506  0.04060176  0.75667316    -0.12400
C543        C  0.28323292  0.06300724  0.76742180     0.01800
C544        C  0.27605967  0.07253476  0.78264333    -0.00600
C545        C  0.23736510  0.06192970  0.78618985    -0.12300
C546        C  0.20601059  0.04084053  0.77519938     0.01600
H547        H  0.25753460  0.03203620  0.74528481     0.14600
H548        H  0.23145251  0.06975351  0.79769392     0.14600
C549        C  0.16712299  0.03118143  0.77964706     0.36300
C550        C  0.32232162  0.07441575  0.76261610     0.36200
N551        N  0.13601735  0.02384954  0.78313988    -0.44100
N552        N  0.35369045  0.08392243  0.75873146    -0.44100
C553        C  0.16504628  0.41853460  0.72362333    -0.00500
C554        C  0.13837457  0.39535548  0.71121094    -0.12400
C555        C  0.14877086  0.37612887  0.69960657     0.01800
C556        C  0.18683091  0.38072833  0.70006541    -0.00600
C557        C  0.21227710  0.40105493  0.71302129    -0.12300
C558        C  0.20155187  0.41890903  0.72492708     0.01600
H559        H  0.10987765  0.39353094  0.71014064     0.14600
H560        H  0.24102354  0.40330897  0.71377154     0.14600
C561        C  0.22901204  0.43718336  0.73822993     0.36300
C562        C  0.12071454  0.35395251  0.68688374     0.36200
N563        N  0.25108809  0.45153930  0.74887182    -0.44100
N564        N  0.09812211  0.33599613  0.67672810    -0.44100
C565        C  0.42287393  0.24514943  0.77722079    -0.00500
C566        C  0.45871029  0.26879920  0.77006019    -0.12400
C567        C  0.46203375  0.29487451  0.75811075     0.01800
C568        C  0.42907096  0.29837970  0.75314325    -0.00600
C569        C  0.39260110  0.27281814  0.75947477    -0.12300
C570        C  0.38912558  0.24624708  0.77135703     0.01600
H571        H  0.48460218  0.26720723  0.77385838     0.14600
H572        H  0.36698636  0.27483821  0.75565628     0.14600
C573        C  0.35082525  0.22176878  0.77758302     0.36300
C574        C  0.49971554  0.31731708  0.75110752     0.36200
N575        N  0.32007969  0.20203210  0.78251130    -0.44100
N576        N  0.52992786  0.33518525  0.74552628    -0.44100
C577        C  0.31636970  0.35171517  0.69191504    -0.00500
C578        C  0.30543080  0.32834986  0.70543256    -0.12400
C579        C  0.33373288  0.32948726  0.71628805     0.01800
C580        C  0.37410806  0.35436516  0.71372232    -0.00600
C581        C  0.38500004  0.37691917  0.70007229    -0.12300
C582        C  0.35695071  0.37577673  0.68921631     0.01600
H583        H  0.27460010  0.30986497  0.70780534     0.14600
H584        H  0.41587111  0.39562974  0.69778335     0.14600
C585        C  0.37124169  0.39959212  0.67541149     0.36300
C586        C  0.32031097  0.30645762  0.73029400     0.36200
N587        N  0.38282669  0.41876517  0.66438998    -0.44100
N588        N  0.30922472  0.28798015  0.74150366    -0.44100
C589        C  0.08374033  0.25547988  0.88329235    -0.00500
C590        C  0.04435699  0.23909112  0.88733145    -0.12400
C591        C  0.01328469  0.21778581  0.87618207     0.01800
C592        C  0.02134049  0.21308146  0.86041701    -0.00600
C593        C  0.06077908  0.22829620  0.85659342    -0.12300
C594        C  0.09170564  0.24920191  0.86774090     0.01600
H595        H  0.03777738  0.24326964  0.89926205     0.14600
H596        H  0.06777072  0.22476584  0.84465793     0.14600
C597        C  0.13129348  0.26595516  0.86249127     0.36300
C598        C  0.97371257  0.20242506  0.88125730     0.36200
N599        N  0.16290122  0.27933624  0.85816632    -0.44100
N600        N  0.94204517  0.19005124  0.88539194    -0.44100
C601        C  0.13477861  0.35496118  0.92794162    -0.00500
C602        C  0.15104216  0.35902225  0.94320100    -0.12400
C603        C  0.14807981  0.38396464  0.95467590     0.01800
C604        C  0.12860118  0.40609119  0.95102743    -0.00600
C605        C  0.11123926  0.40110223  0.93585356    -0.12300
C606        C  0.11433496  0.37603828  0.92433255     0.01600
H607        H  0.16621467  0.34250521  0.94621670     0.14600
H608        H  0.09661679  0.41810295  0.93276871     0.14600
C609        C  0.09863271  0.37466774  0.90863464     0.36300
C610        C  0.16510978  0.38577006  0.97016644     0.36200
N611        N  0.08634331  0.37366095  0.89600226    -0.44100
N612        N  0.23623658  0.96603775  0.95847346    -0.44100
C613        C  0.29085869  0.17284046  0.88376098    -0.00500
C614        C  0.27721413  0.13136599  0.88126734    -0.12400
C615        C  0.29390804  0.11736095  0.87034733     0.01800
C616        C  0.32471610  0.14490235  0.86126063    -0.00600
C617        C  0.33902625  0.18647592  0.86377058    -0.12300
C618        C  0.32235820  0.20065132  0.87488924     0.01600
H619        H  0.25333759  0.10940441  0.88797060     0.14600
H620        H  0.36301889  0.20785358  0.85695845     0.14600
C621        C  0.33904399  0.24369486  0.87729596     0.36300
C622        C  0.28015387  0.07448697  0.86931698     0.36200
N623        N  0.35241458  0.27818753  0.87929438    -0.44100
N624        N  0.26942797  0.04022566  0.86857413    -0.44100
C625        C  0.21593849  0.13816420  0.93126181    -0.00500
C626        C  0.23705474  0.12016774  0.93736355    -0.12400
C627        C  0.22081450  0.08927934  0.94806106     0.01800
C628        C  0.18202820  0.07530198  0.95299231    -0.00600
C629        C  0.16118986  0.09415018  0.94715222    -0.12300
C630        C  0.17782819  0.12539814  0.93642774     0.01600
H631        H  0.26647002  0.12989719  0.93350628     0.14600
H632        H  0.13160696  0.08418260  0.95081276     0.14600
C633        C  0.15442734  0.14219707  0.93024845     0.36300
C634        C  0.24463782  0.07188803  0.95317650     0.36200
N635        N  0.13568888  0.15565493  0.92524494    -0.44100
N636        N  0.26396638  0.05823705  0.95725261    -0.44100
C637        C  0.37283352  0.02690395  0.86126750    -0.00500
C638        C  0.33629004  0.99287382  0.86383021    -0.12400
C639        C  0.33218271  0.96404786  0.87462954     0.01800
C640        C  0.36542795  0.96857730  0.88355766    -0.00600
C641        C  0.40215398  0.00265975  0.88103910    -0.12300
C642        C  0.40622670  0.03150331  0.87001610     0.01600
H643        H  0.31008030  0.98851897  0.85738984     0.14600
H644        H  0.42804411  0.00687963  0.88763316     0.14600
C645        C  0.44513098  0.06480877  0.86783602     0.36300
C646        C  0.32906932  0.41559346  0.85934539     0.36200
N647        N  0.47642230  0.09134174  0.86612246    -0.44100
N648        N  0.31249823  0.38219801  0.85492162    -0.44100
C649        C  0.48396157  0.44486146  0.94737946    -0.00500
C650        C  0.49511992  0.96330961  0.93451547    -0.12400
C651        C  0.46549752  0.95389879  0.92280577     0.01800
C652        C  0.42404904  0.42625326  0.92360317    -0.00600
C653        C  0.41600673  0.40404897  0.93737347    -0.12300
C654        C  0.44521298  0.41295194  0.94913809     0.01600
H655        H  0.52461200  0.98766737  0.93275192     0.14600
H656        H  0.38639891  0.38009276  0.93923626     0.14600
C657        C  0.43439062  0.38831264  0.96281646     0.36300
C658        C  0.47683028  0.97574422  0.90845653     0.36200
N659        N  0.42543616  0.36833412  0.97370596    -0.44100
N660        N  0.48663633  0.99339405  0.89700055    -0.44100
C661        C  0.31396012  0.45518354  0.11795980    -0.00500
C662        C  0.30691699  0.44393067  0.10194943    -0.12400
C663        C  0.31680738  0.47307538  0.09050252     0.01800
C664        C  0.33468921  0.51433709  0.09505698    -0.00600
C665        C  0.34379992  0.52570853  0.11103831    -0.12300
C666        C  0.33319542  0.49650465  0.12250182     0.01600
H667        H  0.29211913  0.41220291  0.09841900     0.14600
H668        H  0.36672368  0.05842388  0.11289163     0.14600
C669        C  0.34215579  0.50960227  0.13883600     0.36300
C670        C  0.30848415  0.45990229  0.07417891     0.36200
N671        N  0.34948450  0.52021077  0.15191061    -0.44100
N672        N  0.30189752  0.44919546  0.06110533    -0.44100
C673        C  0.22122506  0.04948811  0.02956128    -0.00500
C674        C  0.21464790  0.53843971  0.04512866    -0.12400
C675        C  0.24375769  0.54531190  0.05674299     0.01800
C676        C  0.28098439  0.06685564  0.05287536    -0.00600
C677        C  0.29023368  0.08538918  0.03831762    -0.12300
C678        C  0.26104701  0.07667718  0.02663833     0.01600
H679        H  0.18403063  0.52160240  0.04804227     0.14600
H680        H  0.32066637  0.10550919  0.03575025     0.14600
C681        C  0.27325683  0.09559450  0.01171023     0.36300
C682        C  0.23171366  0.53086664  0.07230257     0.36200
N683        N  0.28313823  0.11050954  0.99972066    -0.44100
N684        N  0.22213101  0.51929246  0.08477909    -0.44100
C685        C  0.41245527  0.31169814  0.09477903    -0.00500
C686        C  0.38506933  0.32402908  0.09070553    -0.12400
C687        C  0.36226914  0.32846736  0.10215399     0.01800
C688        C  0.36722380  0.32091200  0.11810184    -0.00600
C689        C  0.39614208  0.31035526  0.12206483    -0.12300
C690        C  0.41850509  0.30572382  0.11066203     0.01600
H691        H  0.38054901  0.32887675  0.07847581     0.14600
H692        H  0.40129223  0.30516510  0.13417344     0.14600
C693        C  0.44818487  0.29567689  0.11566733     0.36300
C694        C  0.33377429  0.34000484  0.09703585     0.36200
N695        N  0.47202698  0.28778283  0.11970987    -0.44100
N696        N  0.31089755  0.34915407  0.09288311    -0.44100
C697        C  0.49284737  0.35195948  0.04827606    -0.00500
C698        C  0.51751319  0.39227361  0.05318687    -0.12400
C699        C  0.03319942  0.42418666  0.04397271     0.01800
C700        C  0.02906622  0.41504209  0.02764835    -0.00600
C701        C  0.50483889  0.37175655  0.02105820    -0.12300
C702        C  0.48685761  0.34156786  0.03205929     0.01600
H703        H  0.01676663  0.40066809  0.06703214     0.14600
H704        H  0.49925455  0.36389244  0.00859742     0.14600
C705        C  0.46060592  0.30064203  0.02645189     0.36300
C706        C  0.05484833  0.46528280  0.05014433     0.36200
N707        N  0.43944105  0.26778701  0.02205659    -0.44100
N708        N  0.07200670  0.49813136  0.05516819    -0.44100
C709        C  0.12337525  0.23848736  0.09716474    -0.00500
C710        C  0.11333844  0.25097973  0.11107198    -0.12400
C711        C  0.14209350  0.27674919  0.12231267     0.01800
C712        C  0.18232190  0.29172776  0.11965956    -0.00600
C713        C  0.19245542  0.27860885  0.10594450    -0.12300
C714        C  0.16360786  0.25223029  0.09479306     0.01600
H715        H  0.08267222  0.23988768  0.11337881     0.14600
H716        H  0.22317647  0.28963440  0.10375110     0.14600
C717        C  0.17654891  0.24110059  0.08084324     0.36300
C718        C  0.12927728  0.28552884  0.13683992     0.36200
N719        N  0.18735263  0.23238534  0.06973178    -0.44100
N720        N  0.11908572  0.29227575  0.14855508    -0.44100
C721        C  0.06677373  0.12726580  0.05625820    -0.00500
C722        C  0.10316610  0.13756857  0.04999938    -0.12400
C723        C  0.10659606  0.11285194  0.03849526     0.01800
C724        C  0.07302970  0.07638839  0.03314340    -0.00600
C725        C  0.03701269  0.06540183  0.03990851    -0.12300
C726        C  0.03349389  0.09025294  0.05122293     0.01600
H727        H  0.12879773  0.16597397  0.05357174     0.14600
H728        H  0.01110873  0.03724750  0.03623259     0.14600
C729        C  0.99507620  0.07665091  0.05732447     0.36300
C730        C  0.14454271  0.12706534  0.03188663     0.36200
N731        N  0.96412295  0.06564639  0.06203184    -0.44100
N732        N  0.17498955  0.64422635  0.02754160    -0.44100
C733        C  0.08667336  0.70719947  0.08786651     0.79900
N734        N  0.05214663  0.70777029  0.08667760    -0.78400
C735        C  0.52600547  0.67987269  0.07527566     0.82300
N736        N  0.02638338  0.65306015  0.06851732    -0.78400
C737        C  0.06067103  0.65240310  0.06927395     0.82400
N738        N  0.09071607  0.67960943  0.07892445    -0.80100
C739        C  0.47588532  0.82043887  0.06148955     0.79900
N740        N  0.47667110  0.78507572  0.06136993    -0.78400
C741        C  0.45576802  0.75643780  0.07182407     0.82300
N742        N  0.43422214  0.76321337  0.08232656    -0.78400
C743        C  0.43395113  0.79868674  0.08287933     0.82400
N744        N  0.45473666  0.82724075  0.07233858    -0.80100
C745        C  0.31594629  0.57156828  0.06433001     0.79900
N746        N  0.30983313  0.04351594  0.07341966    -0.78400
C747        C  0.34138502  0.54570119  0.08362999     0.82300
N748        N  0.37692182  0.57984959  0.08333212    -0.78400
C749        C  0.38207188  0.60976763  0.07353380     0.82400
N750        N  0.35154062  0.60558679  0.06415924    -0.80100
C751        C  0.41999411  0.64708922  0.07329920     0.79900
N752        N  0.45420820  0.64610606  0.07425439    -0.78400
C753        C  0.48915091  0.68099974  0.07409734     0.82300
N754        N  0.48980521  0.71691738  0.07297293    -0.78400
C755        C  0.45560737  0.71790717  0.07189709     0.82400
N756        N  0.42085906  0.68300951  0.07215639    -0.80100
C757        C  0.39214762  0.91563166  0.91432672     0.79900
N758        N  0.39459802  0.94407468  0.90415770    -0.78400
C759        C  0.36269654  0.93822557  0.89517179     0.82300
N760        N  0.32814233  0.90382579  0.89671030    -0.78400
C761        C  0.32498999  0.87516745  0.90662987     0.82400
N762        N  0.35710025  0.88087841  0.91534588    -0.80100
C763        C  0.23283011  0.66576038  0.91687361     0.79900
N764        N  0.25197881  0.65775743  0.90561982    -0.78400
C765        C  0.27118561  0.68425154  0.89431669     0.82300
N766        N  0.27128867  0.71995854  0.89440807    -0.78400
C767        C  0.25162766  0.72818616  0.90544718     0.82400
N768        N  0.23241056  0.70113397  0.91663589    -0.80100
C769        C  0.25206534  0.76658890  0.90562873     0.79900
N770        N  0.28678682  0.80161220  0.90655579    -0.78400
C771        C  0.28733910  0.83747629  0.90703918     0.82300
N772        N  0.25281994  0.83813589  0.90645692    -0.78400
C773        C  0.21794580  0.80296429  0.90551285     0.82400
N774        N  0.21774363  0.76727010  0.90511817    -0.80100
C775        C  0.11584007  0.77837783  0.89489271     0.79900
N776        N  0.15066357  0.77849555  0.89495979    -0.78400
C777        C  0.18050862  0.80316754  0.90520337     0.82300
N778        N  0.17521654  0.82730323  0.91549065    -0.78400
C779        C  0.14027807  0.82687344  0.91586352     0.82400
N780        N  0.11073344  0.80237746  0.90543718    -0.80100
O781        O  0.50587786  0.95390408  0.97586960    -0.81200
O782        O  0.15708084  0.52464416  0.02076680    -0.65900
O783        O  0.08004754  0.51331790  0.98914821    -1.12500
C784        C  0.13005935  0.93470530  0.96233756     1.05700
O785        O  0.20092938  0.54106081  0.00286824    -0.79100
O786        O  0.18591685  0.53541033  0.97190499    -0.66700
Ni787      Ni  0.02728651  0.49409344  0.99510602     1.34900
C788        C  0.16361986  0.54426090  0.96384982     0.84400
O789        O  0.10916134  0.55569505  0.01790743    -0.79700
O790        O  0.04389046  0.52600635  0.01461899    -0.89900
C791        C  0.19254872  0.53845786  0.01720433     0.84000
O792        O  0.01917789  0.94570439  0.00596292    -0.68100
O793        O  0.15829143  0.95095994  0.97260578    -0.87400
C794        C  0.04279314  0.94372010  0.01594153     0.84800
C795        C  0.07624786  0.55156454  0.02164808     1.06400
H796        H  0.11224276  0.95283423  0.99669846     0.38200
O797        O  0.12338913  0.97894218  0.99200399    -1.10100
O798        O  0.12652000  0.52589737  0.96477604    -0.66700
Ni799      Ni  0.08845003  0.97492883  0.97514326     1.26300
O800        O  0.07910701  0.96980669  0.01712775    -0.67000
O801        O  0.10097757  0.94137563  0.96188829    -0.79200
C802        C  0.01433008  0.95636500  0.96210872     0.84200
O803        O  0.05042044  0.97028034  0.95939721    -0.66400
Ni804      Ni  0.17615974  0.99406429  0.98785924     1.27400
Ni805      Ni  0.11759945  0.51903084  0.00541086     1.26100
H806        H  0.08895117  0.53925926  0.98451119     0.38700
C807        C  0.40640867  0.86451162  0.72504918     0.79900
N808        N  0.44093125  0.90000409  0.72618630    -0.78400
C809        C  0.47129637  0.90349477  0.73544401     0.82300
N810        N  0.46719119  0.87156017  0.74356879    -0.78400
C811        C  0.43298838  0.83607869  0.74272656     0.82400
N812        N  0.40239485  0.83261462  0.73348465    -0.80100
C813        C  0.15555632  0.94445173  0.73140902     0.79900
N814        N  0.12086487  0.94444448  0.73026286    -0.78400
C815        C  0.11503906  0.47129177  0.74108278     0.82300
N816        N  0.14479170  0.50024994  0.75028896    -0.78400
C817        C  0.17992304  0.50148265  0.75153830     0.82400
N818        N  0.18523545  0.47415606  0.74320334    -0.80100
C819        C  0.02522657  0.59264750  0.74854055     0.79900
N820        N  0.04898275  0.62001466  0.73812495    -0.78400
C821        C  0.07049306  0.61105481  0.72823100     0.82300
N822        N  0.06812958  0.57442116  0.72907575    -0.78400
C823        C  0.04432829  0.54664569  0.73916562     0.82400
N824        N  0.02283946  0.55572911  0.74897597    -0.80100
C825        C  0.07774596  0.47144834  0.73959358     0.79900
N826        N  0.04429521  0.93721425  0.73514133    -0.78400
C827        C  0.00970364  0.93743049  0.73393638     0.82300
N828        N  0.00875629  0.47243813  0.73711076    -0.78400
C829        C  0.04319998  0.50760500  0.73939960     0.82400
N830        N  0.07752892  0.50693331  0.74053650    -0.80100
O831        O  0.00197890  0.70896205  0.83316852    -0.81200
O832        O  0.34470459  0.61833762  0.79105698    -0.65900
O833        O  0.42424893  0.68390702  0.82172532    -1.12500
C834        C  0.37470655  0.55761072  0.84727445     1.05700
O835        O  0.30162888  0.59142060  0.80929287    -0.79100
O836        O  0.31935807  0.59949375  0.84030542    -0.66700
Ni837      Ni  0.47631069  0.71737331  0.81498304     1.34900
C838        C  0.34294854  0.63158714  0.84800166     0.84400
O839        O  0.39294096  0.69672445  0.79418985    -0.79700
O840        O  0.45834043  0.73202834  0.79593975    -0.89900
C841        C  0.30957207  0.59725966  0.79492098     0.84000
O842        O  0.47916351  0.67485849  0.80425212    -0.68100
O843        O  0.34464564  0.54487880  0.83789247    -0.87400
C844        C  0.45472864  0.65023689  0.79396350     0.84800
C845        C  0.42528468  0.72483210  0.78971535     1.06400
H846        H  0.38808488  0.59261392  0.81306141     0.38200
O847        O  0.37781284  0.60778017  0.81838825    -1.10100
O848        O  0.37968642  0.65061418  0.84624490    -0.66700
Ni849      Ni  0.41490441  0.63957915  0.83472192     1.26300
O850        O  0.41930106  0.64277003  0.79260253    -0.67000
O851        O  0.40359660  0.59376255  0.84746084    -0.79200
C852        C  0.99150002  0.69638010  0.84691433     0.84200
O853        O  0.45409933  0.67337528  0.85013304    -0.66400
Ni854      Ni  0.32535008  0.56981542  0.82348136     1.27400
Ni855      Ni  0.38511137  0.65186148  0.80596448     1.26100
H856        H  0.41626892  0.70129367  0.82689675     0.38700
C857        C  0.29637573  0.68492565  0.57560052     0.79900
N858        N  0.32766765  0.67901495  0.57776385    -0.78400
C859        C  0.33147493  0.65183075  0.56847573     0.82300
N860        N  0.30379182  0.63030677  0.55691524    -0.78400
C861        C  0.27309412  0.63708167  0.55445654     0.82400
N862        N  0.26968153  0.66403995  0.56379545    -0.80100
C863        C  0.03934902  0.76365564  0.58765129     0.79900
N864        N  0.04708342  0.79537798  0.57841020    -0.78400
C865        C  0.01898273  0.79412262  0.56823951     0.82300
N866        N  0.98293767  0.76065494  0.56715950    -0.78400
C867        C  0.97513661  0.72859951  0.57608033     0.82400
N868        N  0.00336338  0.73016675  0.58616099    -0.80100
C869        C  0.43119152  0.53559765  0.56436739     0.79900
N870        N  0.40737792  0.50573978  0.57393791    -0.78400
C871        C  0.38016999  0.50949228  0.58230539     0.82300
N872        N  0.37683096  0.54325096  0.58084202    -0.78400
C873        C  0.40046392  0.57304059  0.57140080     0.82400
N874        N  0.42768952  0.56920086  0.56332147    -0.80100
C875        C  0.36726147  0.64887570  0.57014917     0.79900
N876        N  0.36618266  0.61257895  0.56994719    -0.78400
C877        C  0.40033855  0.61137261  0.57141514     0.82300
N878        N  0.43515417  0.64623137  0.57309096    -0.78400
C879        C  0.43607747  0.68223745  0.57331583     0.82400
N880        N  0.40219754  0.68345483  0.57178460    -0.80100
O881        O  0.15885544  0.70802733  0.66665291    -0.81200
O882        O  0.26941227  0.86200758  0.62695345    -0.65900
O883        O  0.22479281  0.77748236  0.65628262    -1.12500
C884        C  0.20053219  0.86452704  0.68617413     1.05700
O885        O  0.28845497  0.91469141  0.64347338    -0.79100
O886        O  0.29465348  0.88007095  0.67038963    -0.66700
Ni887      Ni  0.18804472  0.72490616  0.64772497     1.34900
C888        C  0.28556957  0.85322732  0.68057374     0.84400
O889        O  0.26833945  0.79233679  0.62974254    -0.79700
O890        O  0.21362500  0.73279463  0.62799227    -0.89900
C891        C  0.28763495  0.89977732  0.62994941     0.84000
O892        O  0.15448612  0.74388984  0.63949513    -0.68100
O893        O  0.23511762  0.88910192  0.68223907    -0.87400
C894        C  0.16399182  0.77127636  0.62945957     0.84800
C895        C  0.24771642  0.75744878  0.62344553     1.06400
H896        H  0.20343874  0.84606172  0.64782231     0.38200
O897        O  0.22441105  0.84487372  0.65362395    -1.10100
O898        O  0.24988415  0.82609091  0.68234602    -0.66700
Ni899      Ni  0.20278012  0.80332800  0.66848844     1.26300
O900        O  0.19983181  0.79734243  0.62743996    -0.67000
O901        O  0.18052893  0.82976151  0.67981584    -0.79200
C902        C  0.16046764  0.72366833  0.68015870     0.84200
O903        O  0.18053379  0.76127878  0.68309686    -0.66400
Ni904      Ni  0.26004043  0.89758041  0.66235906     1.27400
Ni905      Ni  0.24668480  0.81924370  0.64136848     1.26100
H906        H  0.24559059  0.77602461  0.66211124     0.38700
C907        C  0.36185335  0.79490192  0.40317720     0.79900
N908        N  0.32897376  0.79827502  0.40181933    -0.78400
C909        C  0.32469957  0.82486730  0.41129206     0.82300
N910        N  0.35355320  0.84832611  0.42227516    -0.78400
C911        C  0.38615825  0.84429050  0.42381700     0.82400
N912        N  0.38972011  0.81783314  0.41426308    -0.80100
C913        C  0.11817520  0.71621830  0.39291499     0.79900
N914        N  0.15294696  0.75131767  0.39435292    -0.78400
C915        C  0.18198038  0.75482079  0.40443859     0.82300
N916        N  0.17593435  0.72340350  0.41342247    -0.78400
C917        C  0.14089909  0.68858009  0.41261484     0.82400
N918        N  0.11210063  0.68523082  0.40231586    -0.80100
C919        C  0.23067676  0.94416191  0.41710749     0.79900
N920        N  0.23028563  0.90825225  0.41699903    -0.78400
C921        C  0.25514621  0.90238522  0.40800703     0.82300
N922        N  0.27974924  0.93212771  0.39869928    -0.78400
C923        C  0.27964632  0.96777725  0.39820274     0.82400
N924        N  0.25524075  0.97361493  0.40760289    -0.80100
C925        C  0.28819821  0.82667643  0.40984584     0.79900
N926        N  0.28882683  0.86267485  0.40984677    -0.78400
C927        C  0.25467692  0.86368463  0.40802458     0.82300
N928        N  0.21999006  0.82866457  0.40613747    -0.78400
C929        C  0.21933550  0.79268905  0.40607153     0.82400
N930        N  0.25343555  0.79182643  0.40794550    -0.80100
O931        O  0.05796184  0.89355427  0.50595851    -0.81200
O932        O  0.09467313  0.53846828  0.45981013    -0.65900
O933        O  0.09434289  0.96913853  0.49264362    -1.12500
C934        C  0.03143149  0.52303918  0.52155115     1.05700
O935        O  0.10483628  0.58993017  0.47567978    -0.79100
O936        O  0.12898666  0.57544086  0.50355108    -0.66700
Ni937      Ni  0.07753731  0.91468016  0.48588707     1.34900
C938        C  0.13370283  0.55470456  0.51404111     0.84400
O939        O  0.13103527  0.99441398  0.46436684    -0.79700
O940        O  0.09777917  0.92795913  0.46515125    -0.89900
C941        C  0.10463946  0.57520431  0.46217174     0.84000
O942        O  0.02771743  0.90699672  0.47870788    -0.68100
O943        O  0.05684954  0.55545476  0.51545714    -0.87400
C944        C  0.02271206  0.92629274  0.46765265     0.84800
C945        C  0.12509167  0.96000855  0.45969834     1.06400
H946        H  0.03577978  0.50287379  0.48391382     0.38200
O947        O  0.06176450  0.51358262  0.48876721    -1.10100
O948        O  0.10648148  0.51935728  0.51703849    -0.66700
Ni949      Ni  0.05904206  0.97768390  0.50529932     1.26300
O950        O  0.04937364  0.96186987  0.46444450    -0.67000
O951        O  0.02355909  0.98701154  0.51718422    -0.79200
C952        C  0.05384765  0.90706177  0.51904522     0.84200
O953        O  0.05600921  0.94114070  0.52087499    -0.66400
Ni954      Ni  0.08052372  0.56873145  0.49522067     1.27400
Ni955      Ni  0.09492379  0.50378156  0.47555232     1.26100
H956        H  0.12008803  0.98040093  0.49775842     0.38700
C957        C  0.49591971  0.03926689  0.24347345     0.79900
N958        N  0.53095412  0.03992141  0.24481650    -0.78400
C959        C  0.53690658  0.01270418  0.23657773     0.82300
N960        N  0.50750166  0.98441730  0.22698369    -0.78400
C961        C  0.47249391  0.98367995  0.22542157     0.82400
N962        N  0.46715436  0.01112621  0.23366911    -0.80100
C963        C  0.24613545  0.62049704  0.25617303     0.79900
N964        N  0.25252088  0.65204453  0.24706396    -0.78400
C965        C  0.22410006  0.64980588  0.23679572     0.82300
N966        N  0.18878084  0.61524466  0.23581903    -0.78400
C967        C  0.18194341  0.58339079  0.24478347     0.82400
N968        N  0.21075336  0.58602843  0.25487890    -0.80100
C969        C  0.08584367  0.86916124  0.25129673     0.79900
N970        N  0.08646300  0.90519117  0.25114226    -0.78400
C971        C  0.10926432  0.93391928  0.24110656     0.82300
N972        N  0.13128963  0.92650231  0.23105452    -0.78400
C973        C  0.13051604  0.89040512  0.23091060     0.82400
N974        N  0.10787221  0.86194599  0.24111088    -0.80100
C975        C  0.07582565  0.00908001  0.23808648     0.79900
N976        N  0.07557735  0.97329013  0.23834645    -0.78400
C977        C  0.10961055  0.97252484  0.24092518     0.82300
N978        N  0.14395744  0.00765132  0.24330650    -0.78400
C979        C  0.14439042  0.04354097  0.24313194     0.82400
N980        N  0.11028223  0.04416357  0.24051726    -0.80100
O981        O  0.35234857  0.82170793  0.14372907    -0.81200
O982        O  0.24313826  0.85437312  0.18675966    -0.65900
O983        O  0.28251402  0.81079666  0.15620429    -1.12500
C984        C  0.29848544  0.92521901  0.12813421     1.05700
O985        O  0.20545638  0.85973779  0.16834389    -0.79100
O986        O  0.20997435  0.85265464  0.13724338    -0.66700
Ni987      Ni  0.32242243  0.79798750  0.16196734     1.34900
C988        C  0.21315252  0.82475332  0.13031663     0.84400
O989        O  0.24965077  0.78790134  0.18560435    -0.79700
O990        O  0.29669873  0.77220475  0.18082196    -0.89900
C991        C  0.21495147  0.86029407  0.18275749     0.84000
O992        O  0.35580094  0.84668113  0.17342868    -0.68100
O993        O  0.27540519  0.92784546  0.13771053    -0.87400
C994        C  0.34812451  0.86795809  0.18264974     0.84800
C995        C  0.26812042  0.76895852  0.18869124     1.06400
H996        H  0.30167098  0.89899979  0.16244318     0.38200
O997        O  0.27851700  0.87548817  0.15804966    -1.10100
O998        O  0.24395985  0.82159323  0.13178861    -0.66700
Ni999      Ni  0.29520120  0.85337483  0.14182125     1.26300
O1000       O  0.31362619  0.86308485  0.18368296    -0.67000
O1001       O  0.30707303  0.89693117  0.12792199    -0.79200
C1002       C  0.34183942  0.82341813  0.12960383     0.84200
O1003       O  0.31377590  0.83027559  0.12646420    -0.66400
Ni1004     Ni  0.24152330  0.89285758  0.15305260     1.27400
Ni1005     Ni  0.26381166  0.83216453  0.17206695     1.26100
H1006       H  0.26039360  0.78617433  0.15192460     0.38700
O1007       O  0.36905341  0.56402395  0.33612677    -0.81200
O1008       O  0.47185838  0.71836078  0.29519304    -0.65900
O1009       O  0.43215970  0.63425730  0.32482029    -1.12500
C1010       C  0.41086512  0.72260989  0.35569193     1.05700
O1011       O  0.00521761  0.76873673  0.31331938    -0.79100
O1012       O  0.50423401  0.73666501  0.34045184    -0.66700
Ni1013     Ni  0.39479918  0.58141862  0.31645370     1.34900
C1014       C  0.49457177  0.70896200  0.35033718     0.84400
O1015       O  0.47177247  0.64901162  0.29719369    -0.79700
O1016       O  0.41711646  0.58951658  0.29595285    -0.89900
C1017       C  0.99897245  0.75590078  0.29911911     0.84000
O1018       O  0.35933294  0.59939696  0.30930155    -0.68100
O1019       O  0.44419952  0.74805139  0.35071528    -0.87400
C1020       C  0.36776284  0.62663735  0.29925254     0.84800
C1021       C  0.45049166  0.61434759  0.29086931     1.06400
H1022       H  0.41154975  0.70415355  0.31778222     0.38200
O1023       O  0.43269915  0.70216160  0.32305284    -1.10100
O1024       O  0.45883917  0.68152313  0.35153598    -0.66700
Ni1025     Ni  0.41151842  0.66028797  0.33783534     1.26300
O1026       O  0.40326304  0.65361491  0.29710810    -0.67000
O1027       O  0.39083475  0.68712426  0.34991045    -0.79200
C1028       C  0.37114827  0.57993879  0.34961632     0.84200
O1029       O  0.38938499  0.61774856  0.35227747    -0.66400
Ni1030     Ni  0.47061006  0.75464302  0.33130897     1.27400
Ni1031     Ni  0.45206189  0.67589330  0.30980043     1.26100
H1032       H  0.45378155  0.63305211  0.33018674     0.38700
C1033       C  0.02089774  0.78495284  0.28683134    -0.00500
C1034       C  0.02560728  0.77045124  0.27225358    -0.12400
C1035       C  0.04630885  0.79699440  0.26042001     0.01800
C1036       C  0.06281727  0.83912508  0.26307000    -0.00600
C1037       C  0.05760964  0.85348645  0.27753004    -0.12300
C1038       C  0.03701091  0.82717890  0.28932150     0.01600
H1039       H  0.51342393  0.73837923  0.27020168     0.14600
H1040       H  0.07005393  0.88569561  0.27974859     0.14600
C1041       C  0.03229671  0.84486075  0.30364840     0.36300
C1042       C  0.04877311  0.77991693  0.24554226     0.36200
N1043       N  0.02866900  0.85922712  0.31509130    -0.44100
N1044       N  0.05057127  0.76609559  0.23361941    -0.44100
C1045       C  0.19233123  0.86704008  0.19488826    -0.00500
C1046       C  0.18863352  0.84949044  0.20958109    -0.12400
C1047       C  0.16858916  0.85635615  0.22154088     0.01800
C1048       C  0.15194093  0.88147365  0.21887958    -0.00600
C1049       C  0.15555422  0.89878444  0.20416725    -0.12300
C1050       C  0.17537194  0.89186958  0.19223631     0.01600
H1051       H  0.20161277  0.83047880  0.21176422     0.14600
H1052       H  0.14274758  0.91792763  0.20192030     0.14600
C1053       C  0.17920109  0.91229479  0.17768184     0.36300
C1054       C  0.16730163  0.83877974  0.23657269     0.36200
N1055       N  0.18218965  0.92887717  0.16608908    -0.44100
N1056       N  0.16656185  0.82471722  0.24860199    -0.44100
C1057       C  0.25626363  0.74177166  0.20211633    -0.00500
C1058       C  0.21661456  0.71317538  0.20354798    -0.12400
C1059       C  0.20488809  0.68408317  0.21514496     0.01800
C1060       C  0.23337332  0.68322146  0.22566155    -0.00600
C1061       C  0.27271578  0.71415679  0.22485722    -0.12300
C1062       C  0.28426033  0.74309412  0.21327435     0.01600
H1063       H  0.19482081  0.71274387  0.19524396     0.14600
H1064       H  0.29500713  0.71544158  0.23307126     0.14600
C1065       C  0.32493512  0.77447277  0.21331288     0.36300
C1066       C  0.16343333  0.65578561  0.21579276     0.36200
N1067       N  0.35743095  0.79978383  0.21341961    -0.44100
N1068       N  0.13014065  0.63327297  0.21625277    -0.44100
C1069       C  0.27765498  0.62325493  0.26724943    -0.00500
C1070       C  0.26731308  0.60423151  0.28173032    -0.12400
C1071       C  0.29590933  0.60580433  0.29255251     0.01800
C1072       C  0.33600363  0.62601393  0.28884023    -0.00600
C1073       C  0.34624934  0.64533880  0.27439308    -0.12300
C1074       C  0.31779738  0.64426902  0.26369839     0.01600
H1075       H  0.23672061  0.58859326  0.28474558     0.14600
H1076       H  0.37671913  0.66076157  0.27120681     0.14600
C1077       C  0.33078497  0.66355550  0.24889272     0.36300
C1078       C  0.28325870  0.58772597  0.30757185     0.36200
N1079       N  0.34149814  0.67907606  0.23706326    -0.44100
N1080       N  0.27316163  0.57350118  0.31965703    -0.44100
C1081       C  0.44033519  0.95341968  0.21479538    -0.00500
C1082       C  0.44999274  0.94095179  0.20085624    -0.12400
C1083       C  0.42076538  0.91415497  0.19001579     0.01800
C1084       C  0.38054540  0.89863298  0.19313717    -0.00600
C1085       C  0.37098651  0.91094241  0.20715610    -0.12300
C1086       C  0.40020136  0.93777170  0.21796025     0.01600
H1087       H  0.48061099  0.95296368  0.19821118     0.14600
H1088       H  0.34042694  0.89876795  0.20993077     0.14600
C1089       C  0.38772493  0.94691250  0.23249709     0.36300
C1090       C  0.43326991  0.90437123  0.17561224     0.36200
N1091       N  0.37716897  0.95369423  0.24411017    -0.44100
N1092       N  0.44338139  0.89664960  0.16407441    -0.44100
C1093       C  0.48644745  0.06476011  0.25401214    -0.00500
C1094       C  0.45185949  0.56313861  0.25275088    -0.12400
C1095       C  0.43902393  0.57978499  0.26431078     0.01800
C1096       C  0.46456742  0.60212473  0.27711058    -0.00600
C1097       C  0.50115835  0.11174009  0.27632802    -0.12300
C1098       C  0.51398231  0.09437217  0.26493594     0.01600
H1099       H  0.43133249  0.54521162  0.24324139     0.14600
H1100       H  0.52223960  0.13310154  0.28502758     0.14600
C1101       C  0.55530407  0.10688658  0.26519733     0.36300
C1102       C  0.39960408  0.57376157  0.26270976     0.36200
N1103       N  0.58845050  0.11695470  0.26551173    -0.44100
N1104       N  0.86353463  0.55339764  0.26439882    -0.44100
C1105       C  0.35072692  0.55312050  0.36271411    -0.00500
C1106       C  0.32766632  0.56244870  0.37232564    -0.12400
C1107       C  0.29974254  0.03214710  0.38285397     0.01800
C1108       C  0.30471279  0.99878380  0.38685286    -0.00600
C1109       C  0.33329712  0.99355516  0.37908638    -0.12300
C1110       C  0.35534286  0.01947351  0.36734016     0.01600
H1111       H  0.32592892  0.58959328  0.37025898     0.14600
H1112       H  0.33814359  0.96865756  0.38195707     0.14600
C1113       C  0.38376896  0.01214370  0.35968587     0.36300
C1114       C  0.27946241  0.54677629  0.39215496     0.36200
N1115       N  0.40651515  0.00620649  0.35356608    -0.44100
N1116       N  0.25875239  0.55545141  0.39844770    -0.44100
C1117       C  0.20339230  0.95010807  0.42719388    -0.00500
C1118       C  0.16683612  0.91650663  0.42994356    -0.12400
C1119       C  0.14039295  0.91930674  0.43986543     0.01800
C1120       C  0.15036017  0.95657660  0.44761837    -0.00600
C1121       C  0.18662784  0.99056566  0.44452596    -0.12300
C1122       C  0.21302050  0.98769184  0.43446068     0.01600
H1123       H  0.15870667  0.88761905  0.42425513     0.14600
H1124       H  0.19634995  0.51854523  0.45111866     0.14600
C1125       C  0.25051909  0.02334442  0.43252587     0.36300
C1126       C  0.10320899  0.88311074  0.44168069     0.36200
N1127       N  0.28411710  0.54959746  0.43391195    -0.44100
N1128       N  0.07345406  0.85408434  0.44313601    -0.44100
C1129       C  0.08670204  0.71220785  0.38154375    -0.00500
C1130       C  0.04718811  0.68555566  0.38461328    -0.12400
C1131       C  0.01644473  0.68239125  0.37466914     0.01800
C1132       C  0.02497524  0.70592948  0.36109251    -0.00600
C1133       C  0.06460081  0.73146054  0.35780762    -0.03900
C1134       C  0.09517387  0.73487683  0.36778160     0.01600
H1135       H  0.04013348  0.66787516  0.39509888     0.14600
H1136       H  0.07202664  0.74932926  0.34737027     0.14600
C1137       C  0.13490587  0.76156265  0.36332055     0.36300
C1138       C  0.97671128  0.65582435  0.37913319     0.36200
N1139       N  0.16670348  0.78307747  0.35975709    -0.44100
N1140       N  0.44714042  0.63797174  0.38308988    -0.44100
C1141       C  0.13327985  0.65695017  0.42422935    -0.00500
C1142       C  0.15697920  0.66852381  0.43817881    -0.12400
C1143       C  0.14888604  0.64194506  0.45041346     0.01800
C1144       C  0.11666923  0.60247039  0.44884055    -0.00600
C1145       C  0.09436533  0.58977286  0.43461543    -0.12300
C1146       C  0.10213441  0.61660010  0.42236910     0.01600
H1147       H  0.18131563  0.69903109  0.43986658     0.14600
H1148       H  0.06983082  0.55925055  0.43329284     0.14600
C1149       C  0.07745320  0.60169417  0.40818558     0.36300
C1150       C  0.17432326  0.65599652  0.46444462     0.36200
N1151       N  0.05745947  0.58952152  0.39687449    -0.44100
N1152       N  0.19471305  0.66728297  0.47566890    -0.44100
C1153       C  0.37027181  0.76978163  0.39208686    -0.00500
C1154       C  0.40808163  0.77384856  0.39326830    -0.12400
C1155       C  0.42094471  0.75695628  0.38193582     0.01800
C1156       C  0.39586967  0.73512736  0.36899981    -0.00600
C1157       C  0.35688967  0.72740841  0.36843597    -0.12300
C1158       C  0.34377723  0.74437983  0.37988742     0.01600
H1159       H  0.42866063  0.79155015  0.40281843     0.14600
H1160       H  0.33713835  0.70945124  0.35870452     0.14600
C1161       C  0.30330050  0.73509814  0.37870391     0.36300
C1162       C  0.46013240  0.76246114  0.38390310     0.36200
N1163       N  0.27072142  0.72722452  0.37773626    -0.44100
N1164       N  0.49145157  0.76679112  0.38551762    -0.44100
C1165       C  0.41757367  0.86574339  0.43612366    -0.00500
C1166       C  0.43214435  0.84298923  0.44362145    -0.12400
C1167       C  0.46671154  0.86119620  0.45295562     0.01800
C1168       C  0.48750103  0.90373686  0.45547926    -0.00600
C1169       C  0.47203565  0.92655301  0.44837390    -0.12300
C1170       C  0.43751388  0.90793913  0.43866548     0.01600
H1171       H  0.41718914  0.81049106  0.44157259     0.14600
H1172       H  0.99079831  0.96199383  0.44959571     0.14600
C1173       C  0.42474183  0.93284640  0.43062527     0.36300
C1174       C  0.48075683  0.83499946  0.45890615     0.36200
N1175       N  0.41454861  0.95277425  0.42410788    -0.44100
N1176       N  0.49192985  0.81388637  0.46356968    -0.44100
C1177       C  0.30917113  0.92805414  0.61730734    -0.00500
C1178       C  0.31921181  0.91363648  0.60390071    -0.12400
C1179       C  0.34077357  0.93971587  0.59203920     0.01800
C1180       C  0.35674469  0.47960963  0.59418658    -0.00600
C1181       C  0.34129943  0.49265670  0.60619117    -0.12300
C1182       C  0.31967549  0.46716459  0.61799454     0.01600
H1183       H  0.31065743  0.88193260  0.60274041     0.14600
H1184       H  0.34627416  0.52330215  0.60652384     0.14600
C1185       C  0.30368498  0.48276001  0.62947653     0.36300
C1186       C  0.34959515  0.92269174  0.57854934     0.36200
N1187       N  0.29084853  0.49522448  0.63866504    -0.44100
N1188       N  0.35651457  0.90877859  0.56777558    -0.44100
C1189       C  0.95946229  0.53758450  0.55577549    -0.00500
C1190       C  0.45140627  0.49310385  0.54909224    -0.12400
C1191       C  0.47517379  0.48830360  0.53827205     0.01800
C1192       C  0.00748689  0.52631004  0.53422541    -0.00600
C1193       C  0.01904702  0.56469363  0.54101015    -0.12300
C1194       C  0.99570321  0.57055025  0.55169769     0.01600
H1195       H  0.42504494  0.46672012  0.55265162     0.14600
H1196       H  0.04634900  0.59059172  0.53783355     0.14600
C1197       C  0.01021212  0.61063740  0.55850729     0.36300
C1198       C  0.45678125  0.94932719  0.53029742     0.36200
N1199       N  0.02194981  0.64271681  0.56399419    -0.44100
N1200       N  0.44532804  0.91772428  0.52439806    -0.44100
C1201       C  0.07038948  0.76539955  0.59889395    -0.00500
C1202       C  0.10634881  0.80173535  0.60085392    -0.12400
C1203       C  0.13695921  0.80492727  0.61087201     0.01800
C1204       C  0.13221922  0.77107915  0.61925948    -0.00600
C1205       C  0.09601367  0.73517949  0.61764287    -0.12300
C1206       C  0.06540546  0.73192693  0.60769776     0.01600
H1207       H  0.11081356  0.82808513  0.59453295     0.14600
H1208       H  0.09164919  0.70887820  0.62398515     0.14600
C1209       C  0.02973098  0.69332480  0.60680199     0.36300
C1210       C  0.17228375  0.84372779  0.61249160     0.36200
N1211       N  0.00128911  0.66226844  0.60618737    -0.44100
N1212       N  0.20026191  0.87510687  0.61366861    -0.44100
C1213       C  0.04686195  0.88160777  0.53269829    -0.00500
C1214       C  0.01253446  0.86901740  0.54094748    -0.12400
C1215       C  0.00304869  0.84100160  0.55283210     0.01800
C1216       C  0.02905200  0.82654372  0.55697156    -0.00600
C1217       C  0.06431913  0.84084943  0.54919473    -0.12300
C1218       C  0.07302174  0.86756105  0.53694461     0.01600
H1219       H  0.99234742  0.87973024  0.53764114     0.14600
H1220       H  0.08428278  0.82963894  0.55218266     0.14600
C1221       C  0.10871743  0.87975214  0.52873212     0.36300
C1222       C  0.96637696  0.82728263  0.56045577     0.36200
N1223       N  0.13715129  0.88947904  0.52205304    -0.44100
N1224       N  0.45051122  0.73191607  0.52919600    -0.44100
C1225       C  0.26264405  0.74477401  0.61005236    -0.00500
C1226       C  0.30149106  0.75201033  0.61060698    -0.12400
C1227       C  0.31444943  0.73497578  0.59908566     0.01800
C1228       C  0.28796984  0.70991964  0.58680172    -0.00600
C1229       C  0.25027676  0.70603421  0.58567977    -0.12300
C1230       C  0.23756162  0.72304768  0.59705724     0.01600
H1231       H  0.32129595  0.76972090  0.62036339     0.14600
H1232       H  0.22967731  0.68836586  0.57612907     0.14600
C1233       C  0.19850054  0.71779681  0.59500501     0.36300
C1234       C  0.35486658  0.74401218  0.60021095     0.36200
N1235       N  0.16725627  0.71358834  0.59324673    -0.44100
N1236       N  0.38737851  0.75162771  0.60109848    -0.44100
C1237       C  0.17178187  0.57364925  0.52341298    -0.00500
C1238       C  0.19798614  0.61507460  0.52162918    -0.12400
C1239       C  0.23234585  0.63576969  0.53107054     0.01800
C1240       C  0.24212758  0.61486618  0.54222611    -0.00600
C1241       C  0.21750116  0.57331472  0.54356207    -0.12300
C1242       C  0.18225005  0.55264021  0.53449287     0.01600
H1243       H  0.19095371  0.63206697  0.51328488     0.14600
H1244       H  0.22457454  0.55747341  0.55244591     0.14600
C1245       C  0.15706773  0.51049960  0.53748434     0.36300
C1246       C  0.25635893  0.67888207  0.52952860     0.36200
N1247       N  0.13716757  0.47684559  0.54018353    -0.44100
N1248       N  0.27539895  0.71343900  0.52838049    -0.44100
C1249       C  0.13844085  0.69631198  0.69291524    -0.00500
C1250       C  0.13569349  0.65823095  0.69320426    -0.12400
C1251       C  0.11486607  0.63054764  0.70465142     0.01800
C1252       C  0.09532760  0.64040848  0.71627368    -0.00600
C1253       C  0.09862428  0.67898250  0.71606260    -0.12300
C1254       C  0.11983472  0.70676634  0.70460004     0.01600
H1255       H  0.15018555  0.64999832  0.68439864     0.14600
H1256       H  0.08407567  0.68746181  0.72473929     0.14600
C1257       C  0.12015323  0.74485310  0.70465660     0.36300
C1258       C  0.11418863  0.59228722  0.70380143     0.36200
N1259       N  0.12007605  0.77520696  0.70473308    -0.44100
N1260       N  0.11381233  0.56172239  0.70305253    -0.44100
C1261       C  0.00347543  0.60376917  0.75977196    -0.00500
C1262       C  0.00274547  0.59347412  0.77560802    -0.12400
C1263       C  0.98605527  0.60703521  0.78689173     0.01800
C1264       C  0.46864482  0.63129416  0.78249450    -0.00600
C1265       C  0.46058769  0.63312620  0.76645739    -0.12300
C1266       C  0.47674848  0.61968808  0.75500774     0.01600
H1267       H  0.01663402  0.57617392  0.77929802     0.14600
H1268       H  0.44289347  0.64658879  0.76285864     0.14600
C1269       C  0.46864788  0.62348610  0.73865401     0.36300
C1270       C  0.98727518  0.59693464  0.80310505     0.36200
N1271       N  0.46235332  0.62659283  0.72553345    -0.44100
N1272       N  0.98821138  0.58885818  0.81610195    -0.44100
C1273       C  0.21281842  0.53191932  0.76175167    -0.00500
C1274       C  0.25116315  0.54279992  0.75763510    -0.12400
C1275       C  0.28332452  0.56554813  0.76793807     0.01800
C1276       C  0.27754505  0.57863924  0.78271203    -0.00600
C1277       C  0.23960388  0.57029948  0.78641118    -0.12300
C1278       C  0.20727207  0.54718831  0.77609947     0.01600
H1279       H  0.25596845  0.53194772  0.74653500     0.14600
H1280       H  0.23496548  0.58062898  0.79766316     0.14600
C1281       C  0.16881523  0.53762121  0.78109978     0.36300
C1282       C  0.32118725  0.57168545  0.76351573     0.36200
N1283       N  0.13811344  0.53013482  0.78520166    -0.44100
N1284       N  0.35139972  0.57627826  0.75999048    -0.44100
C1285       C  0.16253924  0.91675509  0.72129217    -0.00500
C1286       C  0.14045365  0.90171102  0.70701721    -0.12400
C1287       C  0.15089124  0.88202931  0.69574618     0.01800
C1288       C  0.18390096  0.87728716  0.69870635    -0.00600
C1289       C  0.20406969  0.88922258  0.71334177    -0.12300
C1290       C  0.19337364  0.90829645  0.72473874     0.01600
H1291       H  0.11644911  0.90740203  0.70420741     0.14600
H1292       H  0.22896589  0.88461256  0.71569058     0.14600
C1293       C  0.21492549  0.91908307  0.73972287     0.36300
C1294       C  0.12950104  0.87006664  0.68072748     0.36200
N1295       N  0.23222293  0.92765441  0.75171941    -0.44100
N1296       N  0.11265286  0.86051281  0.66863716    -0.44100
C1297       C  0.42489186  0.74984170  0.77650498    -0.00500
C1298       C  0.45964582  0.77215120  0.76851159    -0.12400
C1299       C  0.46194959  0.79809056  0.75665433     0.01800
C1300       C  0.42916379  0.80287390  0.75269989    -0.00600
C1301       C  0.39355839  0.77854709  0.75982320    -0.12300
C1302       C  0.39103143  0.75208499  0.77159507     0.01600
H1303       H  0.48540503  0.76957431  0.77157239     0.14600
H1304       H  0.36808224  0.78160321  0.75674992     0.14600
C1305       C  0.35367131  0.72903002  0.77874880     0.36300
C1306       C  0.49837594  0.81920953  0.74866619     0.36200
N1307       N  0.32372266  0.71039605  0.78444720    -0.44100
N1308       N  0.52749358  0.83613724  0.74224257    -0.44100
C1309       C  0.31698927  0.85493987  0.69142555    -0.00500
C1310       C  0.30618003  0.83417465  0.70555710    -0.12400
C1311       C  0.33449622  0.83690139  0.71673358     0.01800
C1312       C  0.37479796  0.86035225  0.71380629    -0.00600
C1313       C  0.38567130  0.88081385  0.69966132    -0.12300
C1314       C  0.35750526  0.87846120  0.68853823     0.01600
H1315       H  0.27540393  0.81663181  0.70817208     0.14600
H1316       H  0.41653136  0.89869656  0.69720227     0.14600
C1317       C  0.37151119  0.90052967  0.67432224     0.36300
C1318       C  0.32121549  0.81736066  0.73145965     0.36200
N1319       N  0.38295100  0.91844393  0.66300355    -0.44100
N1320       N  0.31018063  0.80184938  0.74326462    -0.44100
C1321       C  0.08443964  0.75419345  0.88284168    -0.00500
C1322       C  0.04523243  0.73264180  0.88722162    -0.12400
C1323       C  0.01437671  0.71181696  0.87594880     0.01800
C1324       C  0.02258369  0.71274514  0.85982357    -0.00600
C1325       C  0.06212395  0.73331928  0.85563435    -0.12300
C1326       C  0.09275664  0.75410125  0.86685973     0.01600
H1327       H  0.03864477  0.73249814  0.89950125     0.14600
H1328       H  0.06931781  0.73445691  0.84339193     0.14600
C1329       C  0.13211654  0.77769925  0.86143135     0.36300
C1330       C  0.97475516  0.69130033  0.88129685     0.36200
N1331       N  0.16355596  0.79683272  0.85703669    -0.44100
N1332       N  0.94300701  0.67483459  0.88559593    -0.44100
C1333       C  0.13572537  0.85402538  0.92740379    -0.00500
C1334       C  0.17000351  0.88477377  0.93499806    -0.12400
C1335       C  0.16878150  0.91102503  0.94622101     0.01800
C1336       C  0.13228364  0.90733093  0.95024629    -0.00600
C1337       C  0.09782664  0.87708941  0.94250565    -0.12300
C1338       C  0.09911867  0.85039805  0.93125866     0.01600
H1339       H  0.19847877  0.88875425  0.93214428     0.14600
H1340       H  0.06965036  0.87377230  0.94544521     0.14600
C1341       C  0.06226098  0.81927130  0.92428948     0.36300
C1342       C  0.20609477  0.94182507  0.95305586     0.36200
N1343       N  0.03252859  0.79443658  0.91878348    -0.44100
N1344       N  0.17888209  0.38730609  0.98255368    -0.44100
C1345       C  0.29156850  0.67315516  0.88230217    -0.00500
C1346       C  0.28957722  0.63526740  0.88343448    -0.12400
C1347       C  0.30674549  0.62187350  0.87252064     0.01800
C1348       C  0.32667081  0.64638432  0.86005114    -0.00600
C1349       C  0.33002526  0.68463277  0.85894132    -0.12300
C1350       C  0.31250380  0.69818504  0.86984713     0.01600
H1351       H  0.27438888  0.61550102  0.89288642     0.14600
H1352       H  0.34559662  0.70353895  0.84932022     0.14600
C1353       C  0.31631866  0.73747937  0.86769498     0.36300
C1354       C  0.30446032  0.58316998  0.87462317     0.36200
N1355       N  0.31948507  0.76899364  0.86586133    -0.44100
N1356       N  0.30281831  0.55229172  0.87634475    -0.44100
C1357       C  0.21493707  0.63646403  0.92957739    -0.00500
C1358       C  0.22767633  0.60810596  0.93170812    -0.12400
C1359       C  0.21197786  0.57880896  0.94298381     0.01800
C1360       C  0.18196788  0.57651876  0.95238210    -0.00600
C1361       C  0.16932403  0.60502186  0.95055803    -0.12300
C1362       C  0.18602731  0.63540351  0.93948947     0.01600
H1363       H  0.25037820  0.60869883  0.92455414     0.14600
H1364       H  0.14672250  0.60385005  0.95793817     0.14600
C1365       C  0.17285754  0.66474210  0.93866076     0.36300
C1366       C  0.22661530  0.55069652  0.94425771     0.36200
N1367       N  0.16259828  0.68850822  0.93813362    -0.44100
N1368       N  0.23856646  0.52839257  0.94532075    -0.44100
C1369       C  0.37490680  0.52819162  0.85856277    -0.00500
C1370       C  0.35386646  0.48684280  0.85425642    -0.12400
C1371       C  0.34989614  0.45732959  0.86480508     0.01800
C1372       C  0.36715067  0.46881516  0.88014736    -0.00600
C1373       C  0.38913735  0.51011546  0.88436161    -0.12300
C1374       C  0.39285327  0.53972116  0.87382914     0.01600
H1375       H  0.34025351  0.47739586  0.84254628     0.14600
H1376       H  0.40247270  0.51929052  0.89612207     0.14600
C1377       C  0.41319970  0.58136688  0.87936967     0.36300
C1378       C  0.29291874  0.93053559  0.87606559     0.36200
N1379       N  0.42934807  0.61471745  0.88384634    -0.44100
N1380       N  0.26134799  0.90385150  0.87705998    -0.44100
C1381       C  0.48683797  0.94303082  0.94872274    -0.00500
C1382       C  0.49271500  0.46559520  0.93326586    -0.12400
C1383       C  0.46340707  0.45677422  0.92146722     0.01800
C1384       C  0.42623559  0.92358514  0.92521131    -0.00600
C1385       C  0.41880908  0.90137700  0.93896926    -0.12300
C1386       C  0.44839803  0.91062337  0.95058960     0.01600
H1387       H  0.52234441  0.48986113  0.93165794     0.14600
H1388       H  0.38935302  0.87732249  0.94098870     0.14600
C1389       C  0.43824514  0.88607021  0.96429654     0.36300
C1390       C  0.47497642  0.47971074  0.90736396     0.36200
N1391       N  0.43002530  0.86631644  0.97524845    -0.44100
N1392       N  0.48439177  0.49819463  0.89608593    -0.44100
C1393       C  0.31488915  0.95633559  0.11633943    -0.00500
C1394       C  0.30210957  0.94515015  0.10062064    -0.12400
C1395       C  0.31104555  0.97448613  0.08937582     0.01800
C1396       C  0.33430761  0.01582135  0.09378631    -0.00600
C1397       C  0.34909641  0.02678256  0.10937123    -0.12300
C1398       C  0.33888965  0.99743613  0.12071997     0.01600
H1399       H  0.28325150  0.91352858  0.09730649     0.14600
H1400       H  0.35771683  0.55737429  0.11461994     0.14600
C1401       C  0.35222677  0.01018209  0.13686203     0.36300
C1402       C  0.29506305  0.96135113  0.07352213     0.36200
N1403       N  0.36274203  0.02038268  0.14981021    -0.44100
N1404       N  0.28196780  0.95091424  0.06084938    -0.44100
C1405       C  0.22450269  0.55139846  0.02968802    -0.00500
C1406       C  0.21176661  0.03260262  0.04442317    -0.12400
C1407       C  0.24110147  0.04054525  0.05596752     0.01800
C1408       C  0.28380977  0.56619591  0.05309798    -0.00600
C1409       C  0.29375302  0.58124822  0.03801027    -0.12300
C1410       C  0.26487926  0.57387957  0.02633328     0.01600
H1411       H  0.18142912  0.01166610  0.04684120     0.14600
H1412       H  0.32440733  0.59758678  0.03508621     0.14600
C1413       C  0.27814738  0.58922633  0.01097729     0.36300
C1414       C  0.22919197  0.02072558  0.07074055     0.36200
N1415       N  0.28914737  0.60141441  0.99869875    -0.44100
N1416       N  0.21952598  0.00450642  0.08250448    -0.44100
C1417       C  0.41075974  0.80562763  0.09483621    -0.00500
C1418       C  0.39266973  0.82875705  0.09116047    -0.12400
C1419       C  0.36926649  0.83453566  0.10198886     0.01800
C1420       C  0.36423912  0.81754073  0.11698338    -0.00600
C1421       C  0.38259344  0.79471910  0.12058481    -0.12300
C1422       C  0.40547350  0.78862186  0.10983086     0.01600
H1423       H  0.39632623  0.84188992  0.07969688     0.14600
H1424       H  0.37906465  0.78129713  0.13199361     0.14600
C1425       C  0.42397908  0.76567611  0.11489815     0.36300
C1426       C  0.35165467  0.85863638  0.09745880     0.36200
N1427       N  0.43849089  0.74715690  0.11914335    -0.44100
N1428       N  0.33761620  0.87793358  0.09366921    -0.44100
C1429       C  0.49705055  0.85112140  0.04968066    -0.00500
C1430       C  0.52316074  0.89098031  0.05482677    -0.12400
C1431       C  0.03996598  0.91661775  0.04305964     0.01800
C1432       C  0.02685143  0.91036368  0.02707166    -0.00600
C1433       C  0.50775865  0.87270862  0.02259884    -0.12300
C1434       C  0.49005003  0.84188542  0.03337541     0.01600
H1435       H  0.03030154  0.89112673  0.06597131     0.14600
H1436       H  0.50109686  0.86560192  0.01011874     0.14600
C1437       C  0.46316041  0.80149457  0.02740187     0.36300
C1438       C  0.07150931  0.95488839  0.04915589     0.36200
N1439       N  0.44163796  0.76917670  0.02254577    -0.44100
N1440       N  0.09691802  0.98548284  0.05402578    -0.44100
C1441       C  0.11935585  0.73660167  0.09885915    -0.00500
C1442       C  0.11237799  0.76189155  0.10893540    -0.12400
C1443       C  0.14176268  0.79020054  0.11941813     0.01800
C1444       C  0.17989083  0.79453541  0.11985061    -0.00600
C1445       C  0.18664171  0.76885419  0.11000195    -0.12300
C1446       C  0.15716472  0.74008095  0.09976146     0.01600
H1447       H  0.08356843  0.75940938  0.10881428     0.14600
H1448       H  0.21540072  0.77117560  0.11021805     0.14600
C1449       C  0.16733860  0.71477257  0.09051724     0.36300
C1450       C  0.13116847  0.81323776  0.12984497     0.36200
N1451       N  0.17598636  0.69459797  0.08329309    -0.44100
N1452       N  0.12245775  0.83142929  0.13823081    -0.44100
C1453       C  0.06584960  0.62427598  0.05865892    -0.00500
C1454       C  0.10231869  0.63730063  0.05194724    -0.12400
C1455       C  0.10695245  0.61407224  0.04014483     0.01800
C1456       C  0.07455417  0.57662295  0.03489035    -0.00600
C1457       C  0.03869617  0.56281390  0.04225737    -0.12300
C1458       C  0.03407522  0.58604692  0.05396362     0.01600
H1459       H  0.12686130  0.66669521  0.05535290     0.14600
H1460       H  0.01378780  0.53372533  0.03875746     0.14600
C1461       C  0.99624843  0.56972331  0.06091884     0.36300
C1462       C  0.14469697  0.63071147  0.03313595     0.36200
N1463       N  0.96590674  0.55674200  0.06643921    -0.44100
N1464       N  0.17503135  0.13875621  0.02662384    -0.44100
C1465       C  0.58525080  0.20334570  0.08774468     0.79900
N1466       N  0.55207259  0.20639223  0.08626578    -0.78400
C1467       C  0.02637374  0.18627595  0.07528591     0.82300
N1468       N  0.52553666  0.15381676  0.06720643    -0.78400
C1469       C  0.55848227  0.15056982  0.06825666     0.82400
N1470       N  0.58835693  0.17548450  0.07856361    -0.80100
C1471       C  0.96976432  0.32172703  0.06085330     0.79900
N1472       N  0.97151705  0.28687828  0.06078799    -0.78400
C1473       C  0.95175983  0.25841127  0.07147733     0.82300
N1474       N  0.93063439  0.26495442  0.08227023    -0.78400
C1475       C  0.92937034  0.29989870  0.08264454     0.82400
N1476       N  0.94884711  0.32819587  0.07187955    -0.80100
C1477       C  0.81776840  0.07179415  0.06219848     0.79900
N1478       N  0.80763902  0.54000419  0.07282995    -0.78400
C1479       C  0.84410433  0.04484907  0.08069109     0.82300
N1480       N  0.87881440  0.08021647  0.08113751    -0.78400
C1481       C  0.88300710  0.11123954  0.07213085     0.82400
N1482       N  0.85243144  0.10691157  0.06276861    -0.80100
C1483       C  0.91992353  0.14980246  0.07268968     0.79900
N1484       N  0.95488464  0.15061990  0.07415566    -0.78400
C1485       C  0.98904411  0.18637202  0.07452298     0.82300
N1486       N  0.98822539  0.22149966  0.07329168    -0.78400
C1487       C  0.95322789  0.22076318  0.07171387     0.82400
N1488       N  0.91920804  0.18494312  0.07147409    -0.80100
C1489       C  0.89409225  0.42001489  0.91267233     0.79900
N1490       N  0.89719273  0.44719655  0.90170878    -0.78400
C1491       C  0.86560133  0.44006505  0.89213731     0.82300
N1492       N  0.83095967  0.40594495  0.89391064    -0.78400
C1493       C  0.82734185  0.37873797  0.90461048     0.82400
N1494       N  0.85898349  0.38554713  0.91385357    -0.80100
C1495       C  0.74003212  0.17151559  0.91804334     0.79900
N1496       N  0.76042425  0.16392654  0.90722777    -0.78400
C1497       C  0.77866928  0.19014351  0.89569628     0.82300
N1498       N  0.77707062  0.22489342  0.89522037    -0.78400
C1499       C  0.75652415  0.23266436  0.90598644     0.82400
N1500       N  0.73770497  0.20585202  0.91730570    -0.80100
C1501       C  0.75568407  0.27040527  0.90560813     0.79900
N1502       N  0.78997226  0.30571411  0.90583293    -0.78400
C1503       C  0.78990318  0.34117327  0.90539437     0.82300
N1504       N  0.75511643  0.34126266  0.90458234    -0.78400
C1505       C  0.72053185  0.30577287  0.90436156     0.82400
N1506       N  0.72098177  0.27037033  0.90486566    -0.80100
C1507       C  0.61690955  0.27659868  0.89421695     0.79900
N1508       N  0.65212972  0.27754497  0.89450814    -0.78400
C1509       C  0.68270983  0.30535271  0.90377229     0.82300
N1510       N  0.67776743  0.33195084  0.91285996    -0.78400
C1511       C  0.64235493  0.33061811  0.91300555     0.82400
N1512       N  0.61221653  0.30295238  0.90357309    -0.80100
O1513       O  0.00379463  0.46178756  0.97599325    -0.81200
O1514       O  0.65792214  0.02513522  0.02003447    -0.65900
O1515       O  0.58008142  0.01117599  0.98871623    -1.12500
C1516       C  0.63021978  0.43848200  0.95844617     1.05700
O1517       O  0.70174363  0.04297481  0.00203522    -0.79100
O1518       O  0.68775598  0.03515797  0.97105350    -0.66700
Ni1519     Ni  0.52690790  0.98906375  0.99441584     1.34900
C1520       C  0.66654244  0.04626393  0.96350394     0.84400
O1521       O  0.60727572  0.05274752  0.01756123    -0.79700
O1522       O  0.54212126  0.02332525  0.01331835    -0.89900
C1523       C  0.69336409  0.04005315  0.01636403     0.84000
O1524       O  0.52138449  0.44512447  0.00415170    -0.68100
O1525       O  0.65889833  0.45385156  0.96853007    -0.87400
C1526       C  0.54517125  0.44396463  0.01427706     0.84800
C1527       C  0.57402464  0.04873601  0.02073162     1.06400
H1528       H  0.61326663  0.45327917  0.99395080     0.38200
O1529       O  0.62454440  0.47964303  0.98946687    -1.10100
O1530       O  0.62937973  0.02890576  0.96472792    -0.66700
Ni1531     Ni  0.58909211  0.47702288  0.97290832     1.26300
O1532       O  0.58143699  0.47025335  0.01535704    -0.67000
O1533       O  0.60080714  0.44444331  0.95881535    -0.79200
C1534       C  0.51445069  0.45909923  0.96048600     0.84200
O1535       O  0.55055032  0.47363271  0.95756413    -0.66400
Ni1536     Ni  0.67724799  0.49458695  0.98484284     1.27400
Ni1537     Ni  0.61793813  0.01803112  0.00486072     1.26100
H1538       H  0.58785153  0.03720525  0.98434891     0.38700
C1539       C  0.90790406  0.35826697  0.72363122     0.79900
N1540       N  0.94190915  0.39426068  0.72504836    -0.78400
C1541       C  0.97220804  0.39843064  0.73452343     0.82300
N1542       N  0.96861589  0.36664302  0.74264836    -0.78400
C1543       C  0.93479908  0.33081514  0.74166591     0.82400
N1544       N  0.90425161  0.32667401  0.73219524    -0.80100
C1545       C  0.65504183  0.44846583  0.73441571     0.79900
N1546       N  0.61932202  0.44632715  0.73369394    -0.78400
C1547       C  0.61457783  0.97349060  0.74037788     0.82300
N1548       N  0.64568381  0.00246209  0.74906394    -0.78400
C1549       C  0.67996768  0.00172975  0.75026931     0.82400
N1550       N  0.68298610  0.97231887  0.74240697    -0.80100
C1551       C  0.52480085  0.09532126  0.74885053     0.79900
N1552       N  0.54541309  0.12203889  0.73770890    -0.78400
C1553       C  0.56610155  0.11347816  0.72725329     0.82300
N1554       N  0.56625601  0.07801247  0.72824574    -0.78400
C1555       C  0.54533215  0.05090643  0.73910584     0.82400
N1556       N  0.52458668  0.05954864  0.74944427    -0.80100
C1557       C  0.57773913  0.97476003  0.73923267     0.79900
N1558       N  0.54201739  0.43763559  0.73841980    -0.78400
C1559       C  0.50711716  0.43712641  0.73694126     0.82300
N1560       N  0.50947023  0.97721323  0.73746755    -0.78400
C1561       C  0.54433007  0.01202345  0.73915833     0.82400
N1562       N  0.57840471  0.01075023  0.73995550    -0.80100
O1563       O  0.49891340  0.20712930  0.83464640    -0.81200
O1564       O  0.84546784  0.11317966  0.79092036    -0.65900
O1565       O  0.92504126  0.18086202  0.82138962    -1.12500
C1566       C  0.87317060  0.05992502  0.85024165     1.05700
O1567       O  0.80086160  0.08581453  0.80865820    -0.79100
O1568       O  0.81913532  0.10239336  0.83933412    -0.66700
Ni1569     Ni  0.97759580  0.21257039  0.81477116     1.34900
C1570       C  0.84276912  0.13348822  0.84752953     0.84400
O1571       O  0.89485104  0.19186498  0.79317478    -0.79700
O1572       O  0.96039516  0.22819009  0.79573728    -0.89900
C1573       C  0.81001586  0.09222280  0.79442541     0.84000
O1574       O  0.97976146  0.16950461  0.80396803    -0.68100
O1575       O  0.84299264  0.04669374  0.84090462    -0.87400
C1576       C  0.95479618  0.14409691  0.79401223     0.84800
C1577       C  0.92749969  0.22081479  0.78924841     1.06400
H1578       H  0.88762750  0.08872050  0.81440892     0.38200
O1579       O  0.87763700  0.10480312  0.81920605    -1.10100
O1580       O  0.87983977  0.15084505  0.84645115    -0.66700
Ni1581     Ni  0.91497386  0.13833282  0.83538700     1.26300
O1582       O  0.91929323  0.13632655  0.79296126    -0.67000
O1583       O  0.90344507  0.09467017  0.84919947    -0.79200
C1584       C  0.48882674  0.19397582  0.84833446     0.84200
O1585       O  0.95450274  0.17376046  0.85046340    -0.66400
Ni1586     Ni  0.82486062  0.06827420  0.82451858     1.27400
Ni1587     Ni  0.88582453  0.14769546  0.80578944     1.26100
H1588       H  0.91744275  0.19915201  0.82603790     0.38700
C1589       C  0.79399512  0.18716097  0.57815859     0.79900
N1590       N  0.82799229  0.18575442  0.57909916    -0.78400
C1591       C  0.83281259  0.15926683  0.56983168     0.82300
N1592       N  0.80360295  0.13417694  0.55938063    -0.78400
C1593       C  0.76975330  0.13582762  0.55827052     0.82400
N1594       N  0.76513490  0.16187258  0.56772187    -0.80100
C1595       C  0.54091528  0.26372893  0.58607660     0.79900
N1596       N  0.54670741  0.29316394  0.57577283    -0.78400
C1597       C  0.51739999  0.28814134  0.56530122     0.82300
N1598       N  0.48230492  0.25378051  0.56549196    -0.78400
C1599       C  0.47644524  0.22393766  0.57527412     0.82400
N1600       N  0.50590706  0.22867871  0.58540685    -0.80100
C1601       C  0.92767535  0.04008760  0.56596863     0.79900
N1602       N  0.90248675  0.01045674  0.57533392    -0.78400
C1603       C  0.87709199  0.01626342  0.58418727     0.82300
N1604       N  0.87682740  0.05183041  0.58336807    -0.78400
C1605       C  0.90179275  0.08144090  0.57409481     0.82400
N1606       N  0.92723344  0.07552602  0.56554623    -0.80100
C1607       C  0.86931378  0.15762619  0.57138684     0.79900
N1608       N  0.86845789  0.12151999  0.57179385    -0.78400
C1609       C  0.90245172  0.12031098  0.57372738     0.82300
N1610       N  0.93724535  0.15533795  0.57530516    -0.78400
C1611       C  0.93814382  0.19145866  0.57496070     0.82400
N1612       N  0.90414703  0.19247244  0.57299776    -0.80100
O1613       O  0.65647300  0.21560265  0.66696635    -0.81200
O1614       O  0.77240985  0.37050566  0.62907636    -0.65900
O1615       O  0.72460791  0.28429200  0.65757163    -1.12500
C1616       C  0.70310812  0.37193819  0.68855266     1.05700
O1617       O  0.79237195  0.42245750  0.64601257    -0.79100
O1618       O  0.79628823  0.38478280  0.67238854    -0.66700
Ni1619     Ni  0.68760193  0.23229849  0.64867651     1.34900
C1620       C  0.78653432  0.35645232  0.68194754     0.84400
O1621       O  0.76919765  0.29984982  0.63119569    -0.79700
O1622       O  0.71463398  0.24013711  0.62945437    -0.89900
C1623       C  0.79199051  0.40808653  0.63240643     0.84000
O1624       O  0.65529337  0.25183753  0.63978312    -0.68100
O1625       O  0.73804858  0.39590445  0.68474256    -0.87400
C1626       C  0.66578922  0.27954976  0.62986683     0.84800
C1627       C  0.74853502  0.26498786  0.62487579     1.06400
H1628       H  0.70603707  0.35507842  0.64981263     0.38200
O1629       O  0.72647702  0.35289392  0.65560987    -1.10100
O1630       O  0.75048267  0.33082871  0.68399290    -0.66700
Ni1631     Ni  0.70352692  0.31044357  0.67013947     1.26300
O1632       O  0.70175734  0.30660590  0.62879213    -0.67000
O1633       O  0.68250345  0.33754211  0.68192238    -0.79200
C1634       C  0.65814292  0.22995379  0.68070966     0.84200
O1635       O  0.67972653  0.26715490  0.68428005    -0.66400
Ni1636     Ni  0.76325756  0.40476649  0.66482425     1.27400
Ni1637     Ni  0.74801300  0.32689589  0.64306235     1.26100
H1638       H  0.74497065  0.28191622  0.66333436     0.38700
C1639       C  0.86407114  0.29517113  0.40416508     0.79900
N1640       N  0.83175261  0.29940487  0.40213559    -0.78400
C1641       C  0.82657144  0.32555220  0.41146836     0.82300
N1642       N  0.85402476  0.34785980  0.42303099    -0.78400
C1643       C  0.88607441  0.34313784  0.42536975     0.82400
N1644       N  0.89067636  0.31693107  0.41592675    -0.80100
C1645       C  0.61848803  0.21920653  0.39451038     0.79900
N1646       N  0.65402531  0.25346547  0.39522063    -0.78400
C1647       C  0.68343290  0.25685881  0.40507562     0.82300
N1648       N  0.67701192  0.22621478  0.41460853    -0.78400
C1649       C  0.64130142  0.19220624  0.41443870     0.82400
N1650       N  0.61213451  0.18894601  0.40436354    -0.80100
C1651       C  0.73072952  0.44378199  0.41494909     0.79900
N1652       N  0.73142970  0.40853642  0.41510525    -0.78400
C1653       C  0.75748833  0.40369128  0.40653072     0.82300
N1654       N  0.78203743  0.43375717  0.39732055    -0.78400
C1655       C  0.78073546  0.46880367  0.39657142     0.82400
N1656       N  0.75521515  0.47364017  0.40560424    -0.80100
C1657       C  0.79032282  0.32777755  0.40940082     0.79900
N1658       N  0.79138842  0.36399352  0.40873679    -0.78400
C1659       C  0.75736237  0.36520443  0.40669088     0.82300
N1660       N  0.72252172  0.33033343  0.40536192    -0.78400
C1661       C  0.72134663  0.29422796  0.40599272     0.82400
N1662       N  0.75526150  0.29302010  0.40803543    -0.80100
O1663       O  0.55177590  0.38923371  0.50272880    -0.81200
O1664       O  0.59423867  0.03935494  0.46037970    -0.65900
O1665       O  0.59556455  0.46677495  0.49051391    -1.12500
C1666       C  0.53344467  0.02042577  0.52228835     1.05700
O1667       O  0.61043840  0.09040719  0.47740179    -0.79100
O1668       O  0.63195472  0.07525611  0.50567133    -0.66700
Ni1669     Ni  0.57466699  0.41179528  0.48308578     1.34900
C1670       C  0.63554151  0.05293414  0.51570301     0.84400
O1671       O  0.63340359  0.49278872  0.46274079    -0.79700
O1672       O  0.59735389  0.42603983  0.46267049    -0.89900
C1673       C  0.60694596  0.07656315  0.46342476     0.84000
O1674       O  0.52674056  0.40871829  0.47568071    -0.68100
O1675       O  0.55770287  0.05342248  0.51613933    -0.87400
C1676       C  0.52423704  0.43106196  0.46530473     0.84800
C1677       C  0.62564457  0.45814087  0.45758561     1.06400
H1678       H  0.53771917  0.00316700  0.48539064     0.38200
O1679       O  0.56411153  0.01329970  0.48972707    -1.10100
O1680       O  0.60920051  0.01659313  0.51743711    -0.66700
Ni1681     Ni  0.56149638  0.47660952  0.50319412     1.26300
O1682       O  0.55336124  0.46516903  0.46220807    -0.67000
O1683       O  0.52674250  0.48652548  0.51495921    -0.79200
C1684       C  0.55058090  0.40323273  0.51620149     0.84200
O1685       O  0.55733177  0.43898980  0.51852649    -0.66400
Ni1686     Ni  0.58393534  0.06836921  0.49647153     1.27400
Ni1687     Ni  0.59473287  0.00275833  0.47536511     1.26100
H1688       H  0.62085129  0.47603546  0.49580731     0.38700
C1689       C  0.99809951  0.53936469  0.24281113     0.79900
N1690       N  0.03311537  0.54001292  0.24404000    -0.78400
C1691       C  0.03846764  0.51199022  0.23609934     0.82300
N1692       N  0.00844486  0.48285430  0.22695806    -0.78400
C1693       C  0.97337306  0.48207183  0.22558555     0.82400
N1694       N  0.96869527  0.51034666  0.23350456    -0.80100
C1695       C  0.74551794  0.11713128  0.25639680     0.79900
N1696       N  0.75263723  0.14853078  0.24715719    -0.78400
C1697       C  0.72398286  0.14739206  0.23738139     0.82300
N1698       N  0.68776497  0.11408108  0.23683977    -0.78400
C1699       C  0.68028193  0.08226692  0.24593978     0.82400
N1700       N  0.70926414  0.08377660  0.25566559    -0.80100
C1701       C  0.58305881  0.37103691  0.25251096     0.79900
N1702       N  0.58422677  0.40739198  0.25247173    -0.78400
C1703       C  0.60753167  0.43632302  0.24254119     0.82300
N1704       N  0.62954720  0.42876062  0.23248806    -0.78400
C1705       C  0.62845229  0.39248072  0.23227294     0.82400
N1706       N  0.60523831  0.36386598  0.24235089    -0.80100
C1707       C  0.57515501  0.51242883  0.23910364     0.79900
N1708       N  0.57454054  0.47646409  0.23960700    -0.78400
C1709       C  0.60833036  0.47530723  0.24239665     0.82300
N1710       N  0.64291217  0.51035700  0.24467459    -0.78400
C1711       C  0.64376148  0.54648188  0.24426619     0.82400
N1712       N  0.60981172  0.54737080  0.24146124    -0.80100
O1713       O  0.85187924  0.32439916  0.14506875    -0.81200
O1714       O  0.74156718  0.35342872  0.18843191    -0.65900
O1715       O  0.78006627  0.30948381  0.15738383    -1.12500
C1716       C  0.79149957  0.42042254  0.12834776     1.05700
O1717       O  0.70175047  0.35629185  0.17030102    -0.79100
O1718       O  0.70319809  0.34367978  0.13926344    -0.66700
Ni1719     Ni  0.81997420  0.29619064  0.16233467     1.34900
C1720       C  0.70873987  0.31808937  0.13170353     0.84400
O1721       O  0.75073859  0.28790114  0.18760918    -0.79700
O1722       O  0.79180578  0.26623685  0.17986543    -0.89900
C1723       C  0.71304967  0.35914404  0.18463795     0.84000
O1724       O  0.85246000  0.34184556  0.17569644    -0.68100
O1725       O  0.76609359  0.42058406  0.13734292    -0.87400
C1726       C  0.84603994  0.36562717  0.18404846     0.84800
C1727       C  0.76646233  0.26557835  0.18907771     1.06400
H1728       H  0.79676066  0.39740249  0.16314320     0.38200
O1729       O  0.77415747  0.37297962  0.15899504    -1.10100
O1730       O  0.74133870  0.31835217  0.13244203    -0.66700
Ni1731     Ni  0.79189669  0.35139767  0.14287854     1.26300
O1732       O  0.81260733  0.36369412  0.18426683    -0.67000
O1733       O  0.80328722  0.39459955  0.12887154    -0.79200
C1734       C  0.84062546  0.32403860  0.13088402     0.84200
O1735       O  0.81129894  0.32875618  0.12776924    -0.66400
Ni1736     Ni  0.73502222  0.38731243  0.15383033     1.27400
Ni1737     Ni  0.76195248  0.33092056  0.17352778     1.26100
H1738       H  0.75764997  0.28485663  0.15327973     0.38700
O1739       O  0.86894927  0.06316783  0.33528049    -0.81200
O1740       O  0.97448593  0.21887433  0.29538582    -0.65900
O1741       O  0.93229475  0.13340597  0.32440489    -1.12500
C1742       C  0.91227411  0.22230046  0.35600436     1.05700
O1743       O  0.50325740  0.26747514  0.31436082    -0.79100
O1744       O  0.00466357  0.23432760  0.34089686    -0.66700
Ni1745     Ni  0.89523204  0.08072041  0.31582515     1.34900
C1746       C  0.99402006  0.20618531  0.35060190     0.84400
O1747       O  0.97271591  0.14812935  0.29681132    -0.79700
O1748       O  0.91781447  0.08888835  0.29542771    -0.89900
C1749       C  0.49575048  0.25520724  0.30006963     0.84000
O1750       O  0.86041255  0.09924035  0.30868307    -0.68100
O1751       O  0.94573884  0.24746998  0.35106198    -0.87400
C1752       C  0.86911910  0.12675643  0.29875739     0.84800
C1753       C  0.95147959  0.11330547  0.29052352     1.06400
H1754       H  0.91368802  0.20486262  0.31765328     0.38200
O1755       O  0.93431723  0.20209857  0.32299685    -1.10100
O1756       O  0.95811488  0.17912728  0.35147394    -0.66700
Ni1757     Ni  0.91171960  0.15975264  0.33747048     1.26300
O1758       O  0.90464945  0.15399132  0.29671640    -0.67000
O1759       O  0.89167364  0.18716544  0.34985242    -0.79200
C1760       C  0.87004454  0.07910007  0.34862435     0.84200
O1761       O  0.88809470  0.11675405  0.35146281    -0.66400
Ni1762     Ni  0.97261103  0.25389370  0.33173559     1.27400
Ni1763     Ni  0.95329531  0.17546080  0.30959243     1.26100
H1764       H  0.95363581  0.13187529  0.32985890     0.38700
C1765       C  0.51712745  0.28483628  0.28770682    -0.00500
C1766       C  0.52101050  0.27107195  0.27280778    -0.12400
C1767       C  0.54190840  0.29828982  0.26111187     0.01800
C1768       C  0.55928854  0.34042434  0.26413325    -0.00600
C1769       C  0.55449844  0.35405927  0.27884105    -0.12300
C1770       C  0.53393570  0.32709612  0.29053585     0.01600
H1771       H  0.01133079  0.23870224  0.26985716     0.14600
H1772       H  0.56748096  0.38621069  0.28136378     0.14600
C1773       C  0.53019032  0.34415128  0.30521422     0.36300
C1774       C  0.54399398  0.28201654  0.24598874     0.36200
N1775       N  0.52731072  0.35787798  0.31697363    -0.44100
N1776       N  0.54567036  0.26906608  0.23384464    -0.44100
C1777       C  0.69170557  0.36796237  0.19688442    -0.00500
C1778       C  0.68857220  0.35203622  0.21189597    -0.12400
C1779       C  0.66797391  0.35924303  0.22358747     0.01800
C1780       C  0.65077203  0.38370035  0.22048317    -0.00600
C1781       C  0.65455606  0.40015115  0.20557526    -0.12300
C1782       C  0.67435111  0.39233042  0.19381717     0.01600
H1783       H  0.70176722  0.33339428  0.21444679     0.14600
H1784       H  0.64143535  0.41884693  0.20297645     0.14600
C1785       C  0.67711558  0.41071041  0.17883888     0.36300
C1786       C  0.66580135  0.34192854  0.23874310     0.36200
N1787       N  0.67919276  0.42539269  0.16684369    -0.44100
N1788       N  0.66394881  0.32795909  0.25088154    -0.44100
C1789       C  0.75586680  0.23761587  0.20227745    -0.00500
C1790       C  0.71750906  0.21865715  0.20770336    -0.12400
C1791       C  0.70641542  0.18998237  0.21947216     0.01800
C1792       C  0.73408339  0.17995362  0.22600730    -0.00600
C1793       C  0.77280311  0.20054114  0.22108135    -0.12300
C1794       C  0.78391214  0.22905657  0.20946094     0.01600
H1795       H  0.69597242  0.22565146  0.20254608     0.14600
H1796       H  0.79463397  0.19383423  0.22609847     0.14600
C1797       C  0.82471651  0.24962820  0.20544675     0.36300
C1798       C  0.66692839  0.17228696  0.22488816     0.36200
N1799       N  0.85736817  0.26609155  0.20223582    -0.44100
N1800       N  0.63534184  0.15829352  0.22929120    -0.44100
C1801       C  0.77728223  0.11937757  0.26705480    -0.00500
C1802       C  0.76885799  0.10705075  0.28257632    -0.12400
C1803       C  0.79831748  0.11000843  0.29322275     0.01800
C1804       C  0.83726054  0.12555624  0.28838117    -0.00600
C1805       C  0.84563142  0.13805856  0.27284855    -0.12300
C1806       C  0.81612080  0.13467247  0.26217155     0.01600
H1807       H  0.73922925  0.09562428  0.28647832     0.14600
H1808       H  0.87512647  0.14917424  0.26883225     0.14600
C1809       C  0.82607734  0.14455742  0.24603183     0.36300
C1810       C  0.78792429  0.09793355  0.30914688     0.36200
N1811       N  0.83426116  0.15204966  0.23309314    -0.44100
N1812       N  0.77966189  0.08827497  0.32191821    -0.44100
C1813       C  0.94045338  0.45120616  0.21540513    -0.00500
C1814       C  0.94891549  0.43914279  0.20109934    -0.12400
C1815       C  0.91880427  0.41225930  0.19056947     0.01800
C1816       C  0.87897458  0.39623245  0.19436367    -0.00600
C1817       C  0.87052665  0.40815687  0.20873571    -0.12300
C1818       C  0.90065401  0.43511260  0.21925611     0.01600
H1819       H  0.97923293  0.45167135  0.19790631     0.14600
H1820       H  0.84022801  0.39559597  0.21196499     0.14600
C1821       C  0.88967167  0.44409049  0.23419828     0.36300
C1822       C  0.92981015  0.40312827  0.17567380     0.36200
N1823       N  0.88055061  0.45088615  0.24616545    -0.44100
N1824       N  0.93862983  0.39591858  0.16371696    -0.44100
C1825       C  0.98927283  0.56577370  0.25304110    -0.00500
C1826       C  0.95310743  0.06001502  0.25292725    -0.12400
C1827       C  0.94057110  0.07781229  0.26414523     0.01800
C1828       C  0.96578107  0.10001829  0.27706885    -0.00600
C1829       C  0.00510551  0.61426451  0.27488308    -0.12300
C1830       C  0.01748594  0.59688049  0.26330087     0.01600
H1831       H  0.93276091  0.04242483  0.24330132     0.14600
H1832       H  0.02662369  0.63650975  0.28322844     0.14600
C1833       C  0.05909299  0.61160665  0.26235378     0.36300
C1834       C  0.90155260  0.07265011  0.26211227     0.36200
N1835       N  0.09249547  0.62373887  0.26155748    -0.44100
N1836       N  0.35960096  0.04979230  0.26541129    -0.44100
C1837       C  0.84872792  0.05249019  0.36140132    -0.00500
C1838       C  0.81815426  0.05598764  0.36795753    -0.12400
C1839       C  0.80172208  0.53452327  0.38191748     0.01800
C1840       C  0.80542470  0.49999437  0.38522538    -0.00600
C1841       C  0.83224151  0.49358268  0.37669162    -0.12300
C1842       C  0.85356086  0.51919158  0.36480299     0.01600
H1843       H  0.81096246  0.07827804  0.36355611     0.14600
H1844       H  0.83612727  0.46781692  0.37899874     0.14600
C1845       C  0.87967432  0.51004379  0.35625896     0.36300
C1846       C  0.76139666  0.03202919  0.38414662     0.36200
N1847       N  0.90040573  0.50248565  0.34938614    -0.44100
N1848       N  0.73396643  0.03383438  0.38766451    -0.44100
C1849       C  0.70328922  0.44918959  0.42490915    -0.00500
C1850       C  0.66486184  0.41704594  0.42591554    -0.12400
C1851       C  0.63842453  0.41968264  0.43591252     0.01800
C1852       C  0.65059721  0.45502618  0.44542439    -0.00600
C1853       C  0.68884194  0.48757126  0.44403552    -0.12300
C1854       C  0.71511591  0.48493132  0.43395778     0.01600
H1855       H  0.65542984  0.38965831  0.41883564     0.14600
H1856       H  0.69411620  0.02081230  0.44832217     0.14600
C1857       C  0.75480843  0.51829546  0.43397158     0.36300
C1858       C  0.59899339  0.38579586  0.43589773     0.36200
N1859       N  0.77760404  0.05565741  0.42748300    -0.44100
N1860       N  0.56741869  0.35860145  0.43580288    -0.44100
C1861       C  0.58670461  0.21511851  0.38327760    -0.00500
C1862       C  0.54725668  0.19078856  0.38706912    -0.12400
C1863       C  0.51635178  0.18723573  0.37711993     0.01800
C1864       C  0.52459564  0.20762994  0.36275292    -0.00600
C1865       C  0.56404435  0.23115209  0.35885508    -0.03900
C1866       C  0.59483509  0.23525481  0.36888578     0.01600
H1867       H  0.54047147  0.17538300  0.39810815     0.14600
H1868       H  0.57109769  0.24680259  0.34787067     0.14600
C1869       C  0.63439198  0.25992740  0.36383186     0.36300
C1870       C  0.47684086  0.16418777  0.38244559     0.36200
N1871       N  0.66603923  0.27988963  0.35977158    -0.44100
N1872       N  0.94456889  0.12716964  0.38082468    -0.44100
C1873       C  0.63368621  0.16095049  0.42620840    -0.00500
C1874       C  0.65532345  0.17327373  0.44062204    -0.12400
C1875       C  0.64779521  0.14625942  0.45268864     0.01800
C1876       C  0.61826298  0.10537170  0.45045146    -0.00600
C1877       C  0.59768571  0.09252576  0.43581862    -0.12300
C1878       C  0.60485668  0.11985469  0.42378859     0.01600
H1879       H  0.67761293  0.20460526  0.44271958     0.14600
H1880       H  0.57502629  0.06126591  0.43392523     0.14600
C1881       C  0.58237287  0.10469477  0.40910476     0.36300
C1882       C  0.67104640  0.16165645  0.46722419     0.36200
N1883       N  0.56427747  0.09254026  0.39734778    -0.44100
N1884       N  0.68957128  0.17415363  0.47887401    -0.44100
C1885       C  0.87283719  0.27029628  0.39294664    -0.00500
C1886       C  0.91051561  0.27406563  0.39398565    -0.12400
C1887       C  0.92291621  0.25663471  0.38255859     0.01800
C1888       C  0.89768666  0.23502500  0.36955825    -0.00600
C1889       C  0.85894670  0.22796053  0.36912453    -0.12300
C1890       C  0.84620753  0.24503882  0.38070932     0.01600
H1891       H  0.93113685  0.29172229  0.40353286     0.14600
H1892       H  0.83898069  0.21025986  0.35940501     0.14600
C1893       C  0.80573358  0.23579488  0.37965933     0.36300
C1894       C  0.96159331  0.26088631  0.38458127     0.36200
N1895       N  0.77318298  0.22805010  0.37884594    -0.44100
N1896       N  0.99242856  0.26401213  0.38627604    -0.44100
C1897       C  0.91612146  0.36499015  0.43817008    -0.00500
C1898       C  0.92917339  0.34270289  0.44695370    -0.12400
C1899       C  0.96228254  0.36164715  0.45717057     0.01800
C1900       C  0.98389024  0.40439044  0.45866172    -0.00600
C1901       C  0.96953762  0.42670509  0.45045248    -0.12300
C1902       C  0.93563404  0.40733218  0.44042067     0.01600
H1903       H  0.91407518  0.31007768  0.44539379     0.14600
H1904       H  0.51816420  0.44086159  0.43449631     0.14600
C1905       C  0.92269879  0.43157500  0.43197280     0.36300
C1906       C  0.97436290  0.33605077  0.46515860     0.36200
N1907       N  0.91209669  0.45090101  0.42525088    -0.44100
N1908       N  0.98395562  0.31551776  0.47157820    -0.44100
C1909       C  0.81535173  0.43655395  0.61998171    -0.00500
C1910       C  0.82138828  0.42112336  0.60581811    -0.12400
C1911       C  0.84267195  0.44676253  0.59377535     0.01800
C1912       C  0.85224065  0.98605995  0.59578645    -0.00600
C1913       C  0.84229648  0.00011463  0.60928903    -0.12300
C1914       C  0.82036930  0.97397728  0.62098123     0.01600
H1915       H  0.80959202  0.38886441  0.60411680     0.14600
H1916       H  0.85209779  0.03203551  0.61088211     0.14600
C1917       C  0.81062334  0.99123140  0.63415384     0.36300
C1918       C  0.84758858  0.42890758  0.57956517     0.36200
N1919       N  0.80279491  0.00507892  0.64468598    -0.44100
N1920       N  0.85151748  0.41446555  0.56820868    -0.44100
C1921       C  0.45766854  0.03151447  0.55513043    -0.00500
C1922       C  0.94277290  0.99638619  0.54854841    -0.12400
C1923       C  0.96622897  0.99091532  0.53767217     0.01800
C1924       C  0.50806348  0.02210195  0.53451881    -0.00600
C1925       C  0.52004223  0.05923231  0.54240983    -0.12300
C1926       C  0.49545975  0.06416865  0.55264854     0.01600
H1927       H  0.91385432  0.97146510  0.55067955     0.14600
H1928       H  0.54868075  0.08485456  0.54043975     0.14600
C1929       C  0.51021357  0.10298802  0.56062763     0.36300
C1930       C  0.95870769  0.45228805  0.53317701     0.36200
N1931       N  0.52211895  0.13407788  0.56703077    -0.44100
N1932       N  0.94764207  0.41968617  0.52841280    -0.44100
C1933       C  0.57266654  0.26941299  0.59778131    -0.00500
C1934       C  0.61217710  0.29580536  0.59457452    -0.12400
C1935       C  0.64306625  0.30043521  0.60484201     0.01800
C1936       C  0.63477545  0.27878702  0.61891805    -0.00600
C1937       C  0.59520879  0.25355370  0.62233444    -0.12300
C1938       C  0.56447720  0.24856814  0.61203870     0.01600
H1939       H  0.61913260  0.31205786  0.58373196     0.14600
H1940       H  0.58797183  0.23705239  0.63312214     0.14600
C1941       C  0.52489091  0.22206456  0.61669616     0.36300
C1942       C  0.68277179  0.32624437  0.60017249     0.36200
N1943       N  0.49327471  0.20064158  0.62047916    -0.44100
N1944       N  0.71456313  0.34680920  0.59637434    -0.44100
C1945       C  0.54069767  0.37612169  0.52957463    -0.00500
C1946       C  0.50743118  0.33789644  0.52796597    -0.12400
C1947       C  0.49860938  0.30929961  0.53951404     0.01800
C1948       C  0.52389152  0.31863671  0.55317460    -0.00600
C1949       C  0.55685083  0.35758064  0.55487500    -0.12300
C1950       C  0.56528875  0.38624604  0.54327102     0.01600
H1951       H  0.48848294  0.33009242  0.51742922     0.14600
H1952       H  0.57655366  0.36556051  0.56516392     0.14600
C1953       C  0.60067833  0.42488928  0.54519988     0.36300
C1954       C  0.46413201  0.27031890  0.53642731     0.36200
N1955       N  0.62916301  0.45577662  0.54667319    -0.44100
N1956       N  0.95061205  0.33550476  0.57206973    -0.44100
C1957       C  0.76308071  0.25201496  0.61148200    -0.00500
C1958       C  0.80160185  0.25848821  0.61203495    -0.12400
C1959       C  0.81355351  0.23965773  0.60088046     0.01800
C1960       C  0.78630265  0.21343913  0.58898699    -0.00600
C1961       C  0.74892635  0.21032301  0.58780081    -0.12300
C1962       C  0.73732747  0.22937242  0.59877603     0.01600
H1963       H  0.82182726  0.27675328  0.62159958     0.14600
H1964       H  0.72785952  0.19196489  0.57848694     0.14600
C1965       C  0.69862832  0.22511191  0.59673613     0.36300
C1966       C  0.85362492  0.24764749  0.60217476     0.36200
N1967       N  0.66773257  0.22187334  0.59512421    -0.44100
N1968       N  0.88585819  0.25438227  0.60320811    -0.44100
C1969       C  0.67068492  0.07039568  0.52644379    -0.00500
C1970       C  0.70790714  0.09502516  0.52050730    -0.12400
C1971       C  0.74130299  0.11472788  0.53066126     0.01800
C1972       C  0.73750003  0.10993629  0.54700236    -0.00600
C1973       C  0.70047536  0.08475187  0.55289337    -0.12300
C1974       C  0.66717283  0.06495213  0.54280543     0.01600
H1975       H  0.71072094  0.09964003  0.50797318     0.14600
H1976       H  0.69736639  0.08188685  0.56549682     0.14600
C1977       C  0.62936421  0.04204479  0.54965963     0.36300
C1978       C  0.77853107  0.14208461  0.52419920     0.36200
N1979       N  0.59901251  0.02374112  0.55509129    -0.44100
N1980       N  0.80835652  0.16423045  0.51905958    -0.44100
C1981       C  0.63412219  0.20113409  0.69280520    -0.00500
C1982       C  0.62352796  0.16032014  0.69058330    -0.12400
C1983       C  0.60119157  0.13135145  0.70137376     0.01800
C1984       C  0.58874486  0.14281576  0.71502574    -0.00600
C1985       C  0.59853734  0.18352473  0.71708304    -0.12300
C1986       C  0.62097251  0.21255875  0.70621341     0.01600
H1987       H  0.63301674  0.15078986  0.68032719     0.14600
H1988       H  0.58899593  0.19298274  0.72733493     0.14600
C1989       C  0.62898772  0.25345029  0.70900229     0.36300
C1990       C  0.59108575  0.09008114  0.69773877     0.36200
N1991       N  0.63515954  0.28610226  0.71136025    -0.44100
N1992       N  0.58317654  0.05711996  0.69474640    -0.44100
C1993       C  0.50399306  0.10584108  0.76061795    -0.00500
C1994       C  0.51078785  0.10221084  0.77665105    -0.12400
C1995       C  0.49425455  0.11504998  0.78822731     0.01800
C1996       C  0.96822936  0.12507030  0.78232427    -0.00600
C1997       C  0.96055737  0.12814939  0.76634750    -0.12300
C1998       C  0.97711078  0.11579798  0.75466593     0.01600
H1999       H  0.53019291  0.09067864  0.78014453     0.14600
H2000       H  0.94288661  0.14181526  0.76299029     0.14600
C2001       C  0.96881969  0.12028693  0.73840848     0.36300
C2002       C  0.50336843  0.11224755  0.80456705     0.36200
N2003       N  0.96218139  0.12383448  0.72537491    -0.44100
N2004       N  0.51068342  0.11020910  0.81767709    -0.44100
C2005       C  0.71377193  0.03113982  0.76048444    -0.00500
C2006       C  0.75157087  0.03859546  0.75691330    -0.12400
C2007       C  0.78383909  0.06056559  0.76733724     0.01800
C2008       C  0.77850021  0.07491718  0.78191427    -0.00600
C2009       C  0.74128821  0.06964632  0.78509884    -0.12300
C2010       C  0.70917967  0.04863704  0.77444661     0.01600
H2011       H  0.75583050  0.02619577  0.74608181     0.14600
H2012       H  0.73708756  0.08136307  0.79611509     0.14600
C2013       C  0.67179971  0.04428595  0.77853372     0.36300
C2014       C  0.82148424  0.06575987  0.76310628     0.36200
N2015       N  0.64191774  0.04114418  0.78172421    -0.44100
N2016       N  0.85167774  0.07010427  0.75968529    -0.44100
C2017       C  0.66313629  0.42143685  0.72434707    -0.00500
C2018       C  0.63997568  0.40416458  0.71046380    -0.12400
C2019       C  0.65132599  0.38566834  0.69901819     0.01800
C2020       C  0.68666616  0.38473081  0.70129386    -0.00600
C2021       C  0.70817059  0.39896645  0.71561976    -0.12300
C2022       C  0.69628664  0.41639118  0.72727808     0.01600
H2023       H  0.61412062  0.40706049  0.70808686     0.14600
H2024       H  0.73464514  0.39693121  0.71760778     0.14600
C2025       C  0.71862491  0.42858345  0.74209478     0.36300
C2026       C  0.62781498  0.37062650  0.68455312     0.36200
N2027       N  0.73635123  0.43813772  0.75399952    -0.44100
N2028       N  0.60901571  0.35853144  0.67295141    -0.44100
C2029       C  0.92747169  0.24671413  0.77633935    -0.00500
C2030       C  0.96018072  0.26483801  0.76688981    -0.12400
C2031       C  0.96214227  0.29048144  0.75490539     0.01800
C2032       C  0.93084011  0.29840726  0.75210606    -0.00600
C2033       C  0.89750728  0.27919623  0.76110296    -0.12300
C2034       C  0.89569839  0.25393375  0.77324500     0.01600
H2035       H  0.98447866  0.25912023  0.76890682     0.14600
H2036       H  0.87376650  0.28585134  0.75927854     0.14600
C2037       C  0.86215857  0.23845803  0.78302853     0.36300
C2038       C  0.99660943  0.30817725  0.74560611     0.36200
N2039       N  0.83537362  0.22638201  0.79090965    -0.44100
N2040       N  0.02422981  0.32234443  0.73816751    -0.44100
C2041       C  0.81790504  0.35435123  0.69162159    -0.00500
C2042       C  0.80722229  0.32837381  0.70436340    -0.12400
C2043       C  0.83563829  0.32776911  0.71463836     0.01800
C2044       C  0.87598643  0.35417356  0.71246865    -0.00600
C2045       C  0.88664849  0.37862929  0.69930319    -0.12300
C2046       C  0.85840096  0.37859687  0.68883036     0.01600
H2047       H  0.77643804  0.30892140  0.70657467     0.14600
H2048       H  0.91746854  0.39798343  0.69709800     0.14600
C2049       C  0.87233839  0.40341754  0.67525431     0.36300
C2050       C  0.82215085  0.30065833  0.72753320     0.36200
N2051       N  0.88365303  0.42317720  0.66436263    -0.44100
N2052       N  0.81088872  0.27856471  0.73775219    -0.44100
C2053       C  0.58449001  0.24940901  0.88301919    -0.00500
C2054       C  0.54559436  0.23142619  0.88784345    -0.12400
C2055       C  0.51362962  0.21121455  0.87701132     0.01800
C2056       C  0.52043898  0.20861464  0.86093583    -0.00600
C2057       C  0.55941834  0.22420189  0.85639260    -0.12300
C2058       C  0.59122838  0.24479627  0.86714672     0.01600
H2059       H  0.54015805  0.23444199  0.90005143     0.14600
H2060       H  0.56529704  0.22207576  0.84415645     0.14600
C2061       C  0.63025340  0.26423994  0.86117076     0.36300
C2062       C  0.47453250  0.19608416  0.88259407     0.36200
N2063       N  0.66141016  0.28009116  0.85628329    -0.44100
N2064       N  0.44318866  0.18406374  0.88704280    -0.44100
C2065       C  0.63719249  0.35927354  0.92347047    -0.00500
C2066       C  0.67099007  0.39469804  0.92886270    -0.12400
C2067       C  0.66893021  0.42150107  0.93962492     0.01800
C2068       C  0.63239165  0.41288190  0.94564086    -0.00600
C2069       C  0.59821256  0.37879649  0.93965270    -0.12300
C2070       C  0.60017024  0.35215119  0.92860348     0.01600
H2071       H  0.69945254  0.40171812  0.92464369     0.14600
H2072       H  0.56996184  0.37230538  0.94394608     0.14600
C2073       C  0.56363204  0.31751896  0.92320079     0.36300
C2074       C  0.70489343  0.45827508  0.94391364     0.36200
N2075       N  0.53400160  0.29012652  0.91891474    -0.44100
N2076       N  0.73981255  0.97583410  0.95545394    -0.44100
C2077       C  0.79589655  0.17794367  0.88293982    -0.00500
C2078       C  0.77683687  0.13689873  0.87848179    -0.12400
C2079       C  0.79136106  0.12217507  0.86695836     0.01800
C2080       C  0.82592731  0.14888338  0.85935432    -0.00600
C2081       C  0.84507548  0.19022412  0.86368071    -0.12300
C2082       C  0.83022091  0.20499348  0.87531220     0.01600
H2083       H  0.75028089  0.11583780  0.88414066     0.14600
H2084       H  0.87172738  0.21098194  0.85801758     0.14600
C2085       C  0.85157318  0.24750531  0.87957829     0.36300
C2086       C  0.77097820  0.07901145  0.86390500     0.36200
N2087       N  0.86883641  0.28161057  0.88295239    -0.44100
N2088       N  0.75459663  0.04443310  0.86153494    -0.44100
C2089       C  0.72134454  0.14239598  0.93055100    -0.00500
C2090       C  0.74332908  0.12729777  0.93815380    -0.12400
C2091       C  0.72675072  0.09726041  0.94918826     0.01800
C2092       C  0.68641773  0.08059991  0.95264707    -0.00600
C2093       C  0.66470247  0.09668792  0.94520469    -0.12300
C2094       C  0.68189587  0.12751872  0.93435114     0.01600
H2095       H  0.77385430  0.13902571  0.93537474     0.14600
H2096       H  0.63404424  0.08488604  0.94769289     0.14600
C2097       C  0.65803440  0.14202165  0.92668640     0.36300
C2098       C  0.75239218  0.08430259  0.95643741     0.36200
N2099       N  0.63921162  0.15391589  0.92047302    -0.44100
N2100       N  0.77325595  0.07432603  0.96222038    -0.44100
C2101       C  0.87149128  0.03329623  0.86318564    -0.00500
C2102       C  0.83434812  0.00516385  0.86839454    -0.12400
C2103       C  0.83012010  0.97802379  0.88007395     0.01800
C2104       C  0.86366347  0.97778793  0.88668306    -0.00600
C2105       C  0.90090284  0.00737886  0.88208002    -0.12300
C2106       C  0.90515726  0.03508716  0.87056839     0.01600
H2107       H  0.80819314  0.00442880  0.86336526     0.14600
H2108       H  0.92694505  0.00817339  0.88709006     0.14600
C2109       C  0.94437992  0.06385630  0.86624228     0.36300
C2110       C  0.79576036  0.42994702  0.87221571     0.36200
N2111       N  0.97588365  0.08697756  0.86286511    -0.44100
N2112       N  0.76433565  0.40291629  0.87310333    -0.44100
C2113       C  0.98569716  0.44789007  0.94878358    -0.00500
C2114       C  0.99286852  0.96558577  0.93549490    -0.12400
C2115       C  0.96337986  0.95837767  0.92405913     0.01800
C2116       C  0.92710843  0.42880045  0.92432767    -0.00600
C2117       C  0.91773931  0.40885315  0.93865956    -0.12300
C2118       C  0.94627311  0.41784138  0.95070238     0.01600
H2119       H  0.02221733  0.99083753  0.93431112     0.14600
H2120       H  0.88760277  0.38652257  0.94072179     0.14600
C2121       C  0.93410559  0.39503470  0.96483522     0.36300
C2122       C  0.97479390  0.98434624  0.91081302     0.36200
N2123       N  0.92427919  0.37659566  0.97611075    -0.44100
N2124       N  0.98526570  0.00579460  0.90038167    -0.44100
C2125       C  0.80791794  0.45228904  0.11671359    -0.00500
C2126       C  0.80127286  0.44154583  0.10065100    -0.12400
C2127       C  0.81199597  0.47120483  0.08935528     0.01800
C2128       C  0.82986949  0.51233486  0.09413545    -0.00600
C2129       C  0.83866550  0.52312211  0.11016791    -0.12300
C2130       C  0.82775340  0.49347663  0.12145134     0.01600
H2131       H  0.78653087  0.40992675  0.09695799     0.14600
H2132       H  0.87290478  0.05443200  0.11048502     0.14600
C2133       C  0.83759548  0.50591778  0.13782270     0.36300
C2134       C  0.80506918  0.45883421  0.07293751     0.36200
N2135       N  0.84573678  0.51576214  0.15094048    -0.44100
N2136       N  0.79983854  0.44899634  0.05976894    -0.44100
C2137       C  0.72510461  0.05299465  0.02872952    -0.00500
C2138       C  0.71250504  0.53390502  0.04285314    -0.12400
C2139       C  0.74111618  0.54183521  0.05475647     0.01800
C2140       C  0.78516793  0.06675488  0.05137570    -0.00600
C2141       C  0.79435867  0.08646795  0.03704263    -0.12300
C2142       C  0.76490997  0.08001389  0.02578430     0.01600
H2143       H  0.68178730  0.51506190  0.04533197     0.14600
H2144       H  0.82481399  0.10623341  0.03440653     0.14600
C2145       C  0.77658951  0.10183661  0.01140697     0.36300
C2146       C  0.72821630  0.52711427  0.07020265     0.36200
N2147       N  0.78595927  0.11942726  0.99991845    -0.44100
N2148       N  0.71773751  0.51559798  0.08260292    -0.44100
C2149       C  0.90760772  0.30720093  0.09496357    -0.00500
C2150       C  0.88038267  0.31959096  0.09070172    -0.12400
C2151       C  0.85784630  0.32494993  0.10201176     0.01800
C2152       C  0.86328415  0.31899119  0.11809864    -0.00600
C2153       C  0.89119463  0.30716924  0.12225069    -0.12300
C2154       C  0.91291507  0.30094341  0.11091595     0.01600
H2155       H  0.87599708  0.32411126  0.07841893     0.14600
H2156       H  0.89594514  0.30225081  0.13444263     0.14600
C2157       C  0.94118566  0.28905469  0.11604720     0.36300
C2158       C  0.82928812  0.33612555  0.09662288     0.36200
N2159       N  0.96379179  0.27949101  0.12015029    -0.44100
N2160       N  0.80623433  0.34479872  0.09223333    -0.44100
C2161       C  0.99091508  0.35294635  0.04922018    -0.00500
C2162       C  0.01401348  0.39325802  0.05454624    -0.12400
C2163       C  0.53597732  0.42228734  0.04225694     0.01800
C2164       C  0.52944824  0.41217753  0.02600420    -0.00600
C2165       C  0.00591316  0.37474425  0.02230162    -0.12300
C2166       C  0.98713849  0.34371693  0.03291782     0.01600
H2167       H  0.52194917  0.40042708  0.06563547     0.14600
H2168       H  0.00204033  0.36758215  0.00977771     0.14600
C2169       C  0.96223210  0.30310029  0.02671347     0.36300
C2170       C  0.55935151  0.46357991  0.04805027     0.36200
N2171       N  0.94213095  0.27060967  0.02169191    -0.44100
N2172       N  0.57790359  0.49658883  0.05278145    -0.44100
C2173       C  0.61718701  0.23044428  0.09942374    -0.00500
C2174       C  0.60787945  0.24979991  0.11139955    -0.12400
C2175       C  0.63660116  0.27772136  0.12213011     0.01800
C2176       C  0.67621107  0.28691340  0.12122733    -0.00600
C2177       C  0.68528684  0.26636498  0.10966593    -0.12300
C2178       C  0.65656893  0.23866229  0.09883098     0.01600
H2179       H  0.57782829  0.24345083  0.11237216     0.14600
H2180       H  0.71537817  0.27279001  0.10873202     0.14600
C2181       C  0.66935812  0.22085920  0.08694527     0.36300
C2182       C  0.62405451  0.29623105  0.13385633     0.36200
N2183       N  0.68049753  0.20713284  0.07754631    -0.44100
N2184       N  0.61373220  0.31104157  0.14314932    -0.44100
C2185       C  0.56255718  0.12212183  0.05733865    -0.00500
C2186       C  0.59982832  0.13245585  0.05203329    -0.12400
C2187       C  0.60472884  0.10896970  0.04044570     0.01800
C2188       C  0.57155400  0.07411564  0.03370690    -0.00600
C2189       C  0.53442256  0.06308433  0.03947861    -0.12300
C2190       C  0.52966810  0.08634258  0.05115846     0.01600
H2191       H  0.62523960  0.15990853  0.05652324     0.14600
H2192       H  0.50867278  0.03598227  0.03486305     0.14600
C2193       C  0.49062301  0.07211419  0.05669540     0.36300
C2194       C  0.64414597  0.12243048  0.03554083     0.36200
N2195       N  0.45929468  0.06056366  0.06108821    -0.44100
N2196       N  0.67726800  0.63752279  0.02621872    -0.44100
C2197       C  0.59050242  0.70574197  0.08614418     0.79900
N2198       N  0.55617215  0.70660383  0.08489296    -0.78400
C2199       C  0.02197989  0.68055942  0.07711220     0.82300
N2200       N  0.53012194  0.65214060  0.06668277    -0.78400
C2201       C  0.56433261  0.65114767  0.06745036     0.82400
N2202       N  0.59456081  0.67821208  0.07713472    -0.80100
C2203       C  0.96931281  0.81785075  0.06031270     0.79900
N2204       N  0.96989443  0.78244334  0.06013873    -0.78400
C2205       C  0.95044645  0.75479455  0.07109134     0.82300
N2206       N  0.93081106  0.76261989  0.08213003    -0.78400
C2207       C  0.93101761  0.79826782  0.08268792     0.82400
N2208       N  0.95019184  0.82585676  0.07166691    -0.80100
C2209       C  0.81296476  0.57008144  0.06309360     0.79900
N2210       N  0.81386060  0.04096906  0.07117956    -0.78400
C2211       C  0.83720247  0.54415048  0.08283974     0.82300
N2212       N  0.87255081  0.57861745  0.08301874    -0.78400
C2213       C  0.87820038  0.60866981  0.07320848     0.82400
N2214       N  0.84835771  0.60437552  0.06337025    -0.80100
C2215       C  0.91587277  0.64623587  0.07341801     0.79900
N2216       N  0.95027393  0.64594169  0.07539852    -0.78400
C2217       C  0.98498933  0.68116103  0.07557878     0.82300
N2218       N  0.98524236  0.71662639  0.07366958    -0.78400
C2219       C  0.95085488  0.71681767  0.07151891     0.82400
N2220       N  0.91632047  0.68171988  0.07152045    -0.80100
C2221       C  0.89046085  0.92026780  0.91509708     0.79900
N2222       N  0.89230453  0.95075811  0.90631352    -0.78400
C2223       C  0.86066803  0.94569487  0.89735514     0.82300
N2224       N  0.82694271  0.90973113  0.89735567    -0.78400
C2225       C  0.82453134  0.87901508  0.90593499     0.82400
N2226       N  0.85633597  0.88423046  0.91474106    -0.80100
C2227       C  0.73547249  0.67025357  0.91727327     0.79900
N2228       N  0.75621921  0.66198311  0.90686077    -0.78400
C2229       C  0.77529523  0.68758399  0.89526552     0.82300
N2230       N  0.77419212  0.72268767  0.89441658    -0.78400
C2231       C  0.75334635  0.73124539  0.90482461     0.82400
N2232       N  0.73369980  0.70481384  0.91615853    -0.80100
C2233       C  0.75312161  0.76951113  0.90430544     0.79900
N2234       N  0.78758646  0.80495899  0.90516727    -0.78400
C2235       C  0.78746388  0.84055691  0.90551857     0.82300
N2236       N  0.75271575  0.84054875  0.90502930    -0.78400
C2237       C  0.71817662  0.80519860  0.90420805     0.82400
N2238       N  0.71846633  0.76968171  0.90388804    -0.80100
C2239       C  0.61586612  0.78095672  0.89422163     0.79900
N2240       N  0.65023519  0.78015207  0.89441580    -0.78400
C2241       C  0.68079870  0.80549049  0.90421828     0.82300
N2242       N  0.67674137  0.83132336  0.91407367    -0.78400
C2243       C  0.64226165  0.83183715  0.91445229     0.82400
N2244       N  0.61207401  0.80670724  0.90437879    -0.80100
O2245       O  0.00252990  0.95455728  0.97598694    -0.81200
O2246       O  0.65626625  0.52000474  0.01829455    -0.65900
O2247       O  0.57930428  0.50997150  0.98722319    -1.12500
C2248       C  0.63426993  0.94043932  0.96127977     1.05700
O2249       O  0.70120709  0.53705217  0.00076682    -0.79100
O2250       O  0.68542619  0.53447124  0.97006494    -0.66700
Ni2251     Ni  0.52656767  0.49068438  0.99318766     1.34900
C2252       C  0.66375332  0.54469401  0.96233911     0.84400
O2253       O  0.60873372  0.55096266  0.01613077    -0.79700
O2254       O  0.54375849  0.52431233  0.01230905    -0.89900
C2255       C  0.69191118  0.53475101  0.01497182     0.84000
O2256       O  0.52390650  0.94486497  0.00580917    -0.68100
O2257       O  0.66168644  0.95485076  0.97194381    -0.87400
C2258       C  0.54807155  0.94514720  0.01613188     0.84800
C2259       C  0.57631733  0.54844303  0.01961394     1.06400
H2260       H  0.61577045  0.95687239  0.99589181     0.38200
O2261       O  0.62697868  0.98320794  0.99138910    -1.10100
O2262       O  0.62643515  0.52551686  0.96285990    -0.66700
Ni2263     Ni  0.59213306  0.97969125  0.97455682     1.26300
O2264       O  0.58377658  0.97290735  0.01729360    -0.67000
O2265       O  0.60592657  0.94822494  0.96073711    -0.79200
C2266       C  0.51732709  0.95825832  0.96182980     0.84200
O2267       O  0.55365655  0.97510805  0.95896544    -0.66400
Ni2268     Ni  0.67965822  0.99821889  0.98715674     1.27400
Ni2269     Ni  0.61703956  0.51506056  0.00316199     1.26100
H2270       H  0.58815698  0.53624719  0.98289993     0.38700
C2271       C  0.90645988  0.86091311  0.72382132     0.79900
N2272       N  0.94164286  0.89562333  0.72392660    -0.78400
C2273       C  0.97255533  0.89943522  0.73292804     0.82300
N2274       N  0.96831618  0.86858253  0.74184259    -0.78400
C2275       C  0.93334130  0.83401093  0.74203503     0.82400
N2276       N  0.90223493  0.83028476  0.73309461    -0.80100
C2277       C  0.65237692  0.94309356  0.73370233     0.79900
N2278       N  0.61790702  0.94373059  0.73272781    -0.78400
C2279       C  0.61380241  0.47433086  0.74154999     0.82300
N2280       N  0.64401600  0.50454180  0.75017450    -0.78400
C2281       C  0.67959008  0.50658214  0.75113643     0.82400
N2282       N  0.68483807  0.47878552  0.74308193    -0.80100
C2283       C  0.52062497  0.59141501  0.74792641     0.79900
N2284       N  0.54183297  0.61789377  0.73683457    -0.78400
C2285       C  0.56221602  0.60865415  0.72650595     0.82300
N2286       N  0.56170882  0.57294064  0.72759658    -0.78400
C2287       C  0.54018476  0.54610712  0.73841779     0.82400
N2288       N  0.51969929  0.55532479  0.74866764    -0.80100
C2289       C  0.57601413  0.47328579  0.74016770     0.79900
N2290       N  0.54282909  0.94004164  0.73763699    -0.78400
C2291       C  0.50869906  0.94120041  0.73669514     0.82300
N2292       N  0.50626801  0.47236117  0.73724170    -0.78400
C2293       C  0.54028689  0.50797381  0.73907372     0.82400
N2294       N  0.57503226  0.50835249  0.74043303    -0.80100
O2295       O  0.50080314  0.70871236  0.83342955    -0.81200
O2296       O  0.84506064  0.61973352  0.79086848    -0.65900
O2297       O  0.92501041  0.68371633  0.82179683    -1.12500
C2298       C  0.87513808  0.55715558  0.84655378     1.05700
O2299       O  0.80120373  0.59212228  0.80880161    -0.79100
O2300       O  0.82011243  0.60230263  0.83977466    -0.66700
Ni2301     Ni  0.97698363  0.71658528  0.81471877     1.34900
C2302       C  0.84447049  0.63221969  0.84836436     0.84400
O2303       O  0.89364375  0.69779873  0.79458202    -0.79700
O2304       O  0.95903684  0.73092279  0.79561948    -0.89900
C2305       C  0.80967792  0.59934474  0.79451329     0.84000
O2306       O  0.97897237  0.67304130  0.80431830    -0.68100
O2307       O  0.84402095  0.54633310  0.83796669    -0.87400
C2308       C  0.95458681  0.64914555  0.79384245     0.84800
C2309       C  0.92606782  0.72525673  0.78994655     1.06400
H2310       H  0.88711491  0.59217907  0.81250199     0.38200
O2311       O  0.87771538  0.60784011  0.81805451    -1.10100
O2312       O  0.88144630  0.64925815  0.84696811    -0.66700
Ni2313     Ni  0.91585164  0.63871767  0.83433503     1.26300
O2314       O  0.91953329  0.64293720  0.79231909    -0.67000
O2315       O  0.90521185  0.59231890  0.84633548    -0.79200
C2316       C  0.48963495  0.69756378  0.84726154     0.84200
O2317       O  0.95613442  0.67126819  0.84971335    -0.66400
Ni2318     Ni  0.82506697  0.57107594  0.82329791     1.27400
Ni2319     Ni  0.88559536  0.65235997  0.80593354     1.26100
H2320       H  0.91736407  0.70101752  0.82725368     0.38700
C2321       C  0.79352033  0.68781559  0.57636197     0.79900
N2322       N  0.82762286  0.68657781  0.57733316    -0.78400
C2323       C  0.83210593  0.65915934  0.56851176     0.82300
N2324       N  0.80237803  0.63290656  0.55848865    -0.78400
C2325       C  0.76838291  0.63431027  0.55730603     0.82400
N2326       N  0.76417801  0.66138080  0.56632314    -0.80100
C2327       C  0.53663708  0.75986865  0.58628934     0.79900
N2328       N  0.54296072  0.78957562  0.57607149    -0.78400
C2329       C  0.51461704  0.78447641  0.56510368     0.82300
N2330       N  0.47965968  0.74980059  0.56471312    -0.78400
C2331       C  0.47340925  0.71979448  0.57450204     0.82400
N2332       N  0.50200110  0.72462763  0.58509873    -0.80100
C2333       C  0.93123753  0.54294028  0.56541019     0.79900
N2334       N  0.90700953  0.51342862  0.57500286    -0.78400
C2335       C  0.88056340  0.51814960  0.58350094     0.82300
N2336       N  0.87817745  0.55247507  0.58215552    -0.78400
C2337       C  0.90206232  0.58189056  0.57257655     0.82400
N2338       N  0.92876217  0.57718864  0.56440061    -0.80100
C2339       C  0.86871164  0.65756531  0.57015801     0.79900
N2340       N  0.86794391  0.62143124  0.57029897    -0.78400
C2341       C  0.90201340  0.62032499  0.57222587     0.82300
N2342       N  0.93660977  0.65526883  0.57410077    -0.78400
C2343       C  0.93749086  0.69129512  0.57405275     0.82400
N2344       N  0.90353437  0.69242788  0.57206712    -0.80100
O2345       O  0.65425735  0.70923092  0.66619523    -0.81200
O2346       O  0.76650699  0.86581310  0.62851348    -0.65900
O2347       O  0.72181110  0.77897318  0.65682053    -1.12500
C2348       C  0.69768146  0.86390790  0.68826071     1.05700
O2349       O  0.78693075  0.91725189  0.64575586    -0.79100
O2350       O  0.79206075  0.87981899  0.67212388    -0.66700
Ni2351     Ni  0.68539337  0.72671248  0.64783188     1.34900
C2352       C  0.78265532  0.85174020  0.68178841     0.84400
O2353       O  0.76583327  0.79637367  0.63022568    -0.79700
O2354       O  0.71259999  0.73550169  0.62851042    -0.89900
C2355       C  0.78563321  0.90332180  0.63195783     0.84000
O2356       O  0.65183741  0.74494999  0.63902805    -0.68100
O2357       O  0.73242100  0.88868787  0.68445206    -0.87400
C2358       C  0.66157383  0.77326167  0.62942932     0.84800
C2359       C  0.74603668  0.76150698  0.62383439     1.06400
H2360       H  0.70086419  0.84844380  0.64962966     0.38200
O2361       O  0.72173933  0.84667645  0.65526634    -1.10100
O2362       O  0.74685200  0.82506358  0.68357736    -0.66700
Ni2363     Ni  0.69994607  0.80385879  0.66963374     1.26300
O2364       O  0.69726112  0.80092432  0.62837919    -0.67000
O2365       O  0.67776195  0.82947346  0.68159370    -0.79200
C2366       C  0.65599926  0.72340161  0.68000051     0.84200
O2367       O  0.67760174  0.76047066  0.68361865    -0.66400
Ni2368     Ni  0.75791852  0.89861003  0.66457294     1.27400
Ni2369     Ni  0.74385186  0.82195727  0.64241979     1.26100
H2370       H  0.74267046  0.77720376  0.66245628     0.38700
C2371       C  0.86584479  0.79942769  0.40233682     0.79900
N2372       N  0.83294275  0.80277045  0.40099439    -0.78400
C2373       C  0.82813571  0.82863084  0.41063940     0.82300
N2374       N  0.85652136  0.85142645  0.42184915    -0.78400
C2375       C  0.88913450  0.84742213  0.42349625     0.82400
N2376       N  0.89332612  0.82155888  0.41376083    -0.80100
C2377       C  0.62067559  0.71985052  0.39257142     0.79900
N2378       N  0.65585286  0.75465643  0.39368477    -0.78400
C2379       C  0.68495309  0.75833232  0.40383350     0.82300
N2380       N  0.67859722  0.72739669  0.41318581    -0.78400
C2381       C  0.64332546  0.69282247  0.41271044     0.82400
N2382       N  0.61443702  0.68932543  0.40234923    -0.80100
C2383       C  0.73169517  0.94634778  0.41571893     0.79900
N2384       N  0.73262530  0.91116270  0.41614496    -0.78400
C2385       C  0.75807126  0.90568878  0.40740615     0.82300
N2386       N  0.78189963  0.93503657  0.39780193    -0.78400
C2387       C  0.78038583  0.96986959  0.39679700     0.82400
N2388       N  0.75546510  0.97542736  0.40594564    -0.80100
C2389       C  0.79150037  0.83027277  0.40916654     0.79900
N2390       N  0.79205812  0.86624514  0.40929448    -0.78400
C2391       C  0.75785839  0.86716753  0.40753085     0.82300
N2392       N  0.72321549  0.83214937  0.40557202    -0.78400
C2393       C  0.72254156  0.79618663  0.40535447     0.82400
N2394       N  0.75671565  0.79536486  0.40718310    -0.80100
O2395       O  0.54637801  0.89065796  0.50334766    -0.81200
O2396       O  0.60310472  0.54147526  0.45941135    -0.65900
O2397       O  0.59586628  0.96843056  0.49144623    -1.12500
C2398       C  0.53285992  0.52059924  0.52002069     1.05700
O2399       O  0.61253829  0.59184105  0.47578013    -0.79100
O2400       O  0.63295902  0.57299445  0.50406444    -0.66700
Ni2401     Ni  0.57984436  0.91341436  0.48593597     1.34900
C2402       C  0.63432479  0.55032578  0.51455416     0.84400
O2403       O  0.62555038  0.99123358  0.46129796    -0.79700
O2404       O  0.61204889  0.92925067  0.46814025    -0.89900
C2405       C  0.61235803  0.57799598  0.46206659     0.84000
O2406       O  0.53471541  0.90307709  0.47342166    -0.68100
O2407       O  0.55945229  0.55347533  0.51456683    -0.87400
C2408       C  0.52520174  0.92451347  0.46511271     0.84800
C2409       C  0.62835589  0.95951676  0.45942446     1.06400
H2410       H  0.54058985  0.50477452  0.48230307     0.38200
O2411       O  0.56592450  0.51396765  0.48754997    -1.10100
O2412       O  0.60623433  0.51470843  0.51634876    -0.66700
Ni2413     Ni  0.56349399  0.97737864  0.50531973     1.26300
O2414       O  0.54657817  0.96267151  0.46464316    -0.67000
O2415       O  0.53006432  0.98667922  0.51823434    -0.79200
C2416       C  0.55133800  0.90405366  0.51742725     0.84200
O2417       O  0.56362779  0.94100051  0.52046736    -0.66400
Ni2418     Ni  0.58593527  0.56876464  0.49486704     1.27400
Ni2419     Ni  0.59939698  0.50373605  0.47473784     1.26100
H2420       H  0.62232952  0.98054871  0.49592855     0.38700
C2421       C  0.99876256  0.03691463  0.24364993     0.79900
N2422       N  0.03349805  0.03700713  0.24459935    -0.78400
C2423       C  0.03879249  0.00979322  0.23606570     0.82300
N2424       N  0.00898737  0.98205210  0.22643917    -0.78400
C2425       C  0.97420327  0.98199309  0.22519675     0.82400
N2426       N  0.96956970  0.00943081  0.23381692    -0.80100
C2427       C  0.74617356  0.62128440  0.25702851     0.79900
N2428       N  0.75218267  0.65295407  0.24807785    -0.78400
C2429       C  0.72328391  0.65093988  0.23814816     0.82300
N2430       N  0.68790016  0.61643403  0.23732816    -0.78400
C2431       C  0.68143383  0.58442004  0.24614309     0.82400
N2432       N  0.71070869  0.58687624  0.25592373    -0.80100
C2433       C  0.58019452  0.86925268  0.25030136     0.79900
N2434       N  0.58148774  0.90561092  0.25038728    -0.78400
C2435       C  0.60543918  0.93503593  0.24083160     0.82300
N2436       N  0.62800693  0.92803927  0.23090440    -0.78400
C2437       C  0.62671076  0.89167373  0.23043131     0.82400
N2438       N  0.60291122  0.86251614  0.24024403    -0.80100
C2439       C  0.57374774  0.01170434  0.23896668     0.79900
N2440       N  0.57294882  0.97563761  0.23879268    -0.78400
C2441       C  0.60658996  0.97405922  0.24115591     0.82300
N2442       N  0.64122929  0.00872440  0.24374423    -0.78400
C2443       C  0.64231917  0.04494671  0.24401640     0.82400
N2444       N  0.60852532  0.04640917  0.24156272    -0.80100
O2445       O  0.85127628  0.81845377  0.14492459    -0.81200
O2446       O  0.74284171  0.85654583  0.18696490    -0.65900
O2447       O  0.78118562  0.81030984  0.15678477    -1.12500
C2448       C  0.79828385  0.92270566  0.12696998     1.05700
O2449       O  0.70549353  0.86274843  0.16852603    -0.79100
O2450       O  0.70829777  0.84820232  0.13767333    -0.66700
Ni2451     Ni  0.81987646  0.79573494  0.16287663     1.34900
C2452       C  0.71366568  0.82264172  0.12999721     0.84400
O2453       O  0.74836291  0.78925538  0.18657083    -0.79700
O2454       O  0.79303028  0.77047484  0.18148951    -0.89900
C2455       C  0.71518345  0.86339873  0.18296140     0.84000
O2456       O  0.85388760  0.84410458  0.17444170    -0.68100
O2457       O  0.77263042  0.92382707  0.13552335    -0.87400
C2458       C  0.84717401  0.86720240  0.18305791     0.84800
C2459       C  0.76555529  0.76896032  0.18958996     1.06400
H2460       H  0.80058077  0.89944586  0.16238962     0.38200
O2461       O  0.77780660  0.87555222  0.15799628    -1.10100
O2462       O  0.74572392  0.82180606  0.13113659    -0.66700
Ni2463     Ni  0.79570179  0.85307618  0.14229265     1.26300
O2464       O  0.81321583  0.86398492  0.18377797    -0.67000
O2465       O  0.80981504  0.89683071  0.12828245    -0.79200
C2466       C  0.84267110  0.82261966  0.13082262     0.84200
O2467       O  0.81508445  0.82992191  0.12749386    -0.66400
Ni2468     Ni  0.74042356  0.89196034  0.15212141     1.27400
Ni2469     Ni  0.76288826  0.83289457  0.17247003     1.26100
H2470       H  0.75872036  0.78609065  0.15242857     0.38700
O2471       O  0.86956892  0.56405223  0.33528265    -0.81200
O2472       O  0.97527984  0.71925047  0.29528852    -0.65900
O2473       O  0.93305637  0.63412581  0.32440738    -1.12500
C2474       C  0.91251840  0.72337136  0.35521674     1.05700
O2475       O  0.50058313  0.76966218  0.31258725    -0.79100
O2476       O  0.00503606  0.73443968  0.34070047    -0.66700
Ni2477     Ni  0.89607177  0.58148103  0.31589415     1.34900
C2478       C  0.99420573  0.70638615  0.35042183     0.84400
O2479       O  0.97354363  0.64889282  0.29672287    -0.79700
O2480       O  0.91886601  0.58961876  0.29562410    -0.89900
C2481       C  0.49407580  0.75560385  0.29850386     0.84000
O2482       O  0.86131849  0.59994936  0.30859150    -0.68100
O2483       O  0.94625902  0.74819922  0.35046165    -0.87400
C2484       C  0.86992527  0.62760066  0.29872935     0.84800
C2485       C  0.95200220  0.61426737  0.29037135     1.06400
H2486       H  0.91467085  0.70569486  0.31734024     0.38200
O2487       O  0.93512289  0.70275057  0.32274694    -1.10100
O2488       O  0.95818444  0.67981013  0.35144195    -0.66700
Ni2489     Ni  0.91213014  0.66049208  0.33723371     1.26300
O2490       O  0.90547984  0.65468818  0.29664577    -0.67000
O2491       O  0.89186135  0.68809379  0.34923887    -0.79200
C2492       C  0.87036183  0.57993562  0.34859954     0.84200
O2493       O  0.88808416  0.61764852  0.35132989    -0.66400
Ni2494     Ni  0.97360323  0.75441162  0.33141598     1.27400
Ni2495     Ni  0.95410541  0.67605414  0.30950537     1.26100
H2496       H  0.95431531  0.63268601  0.32993664     0.38700
C2497       C  0.51392476  0.78403170  0.28568440    -0.00500
C2498       C  0.52245020  0.77012793  0.27175503    -0.12400
C2499       C  0.54284381  0.79678139  0.25983001     0.01800
C2500       C  0.55584761  0.83855156  0.26183468    -0.00600
C2501       C  0.54555135  0.85186804  0.27544015    -0.12300
C2502       C  0.52445100  0.82524217  0.28711724     0.01600
H2503       H  0.01319182  0.73823937  0.27007767     0.14600
H2504       H  0.55415139  0.88348229  0.27709223     0.14600
C2505       C  0.51248027  0.84096204  0.30008972     0.36300
C2506       C  0.54851879  0.78009230  0.24546520     0.36200
N2507       N  0.50254811  0.85343953  0.31039888    -0.44100
N2508       N  0.55280904  0.76679261  0.23387386    -0.44100
C2509       C  0.69265045  0.87069552  0.19514106    -0.00500
C2510       C  0.68728419  0.85215473  0.20971575    -0.12400
C2511       C  0.66576581  0.85811459  0.22136434     0.01800
C2512       C  0.64962230  0.88367862  0.21864173    -0.00600
C2513       C  0.65548843  0.90254574  0.20415055    -0.12300
C2514       C  0.67642541  0.89621479  0.19246615     0.01600
H2515       H  0.69962075  0.83260913  0.21197382     0.14600
H2516       H  0.64330457  0.92220632  0.20183077     0.14600
C2517       C  0.68174237  0.91749260  0.17803714     0.36300
C2518       C  0.66184276  0.83863498  0.23613936     0.36200
N2519       N  0.68590635  0.93458681  0.16649959    -0.44100
N2520       N  0.65865968  0.82302706  0.24798987    -0.44100
C2521       C  0.75410739  0.74244077  0.20328918    -0.00500
C2522       C  0.71437201  0.71567823  0.20571851    -0.12400
C2523       C  0.70317983  0.68666692  0.21738327     0.01800
C2524       C  0.73224062  0.68435343  0.22704650    -0.00600
C2525       C  0.77183670  0.71346974  0.22526853    -0.12300
C2526       C  0.78289640  0.74190614  0.21352696     0.01600
H2527       H  0.69204204  0.71633406  0.19806471     0.14600
H2528       H  0.79473618  0.71332274  0.23269398     0.14600
C2529       C  0.82422743  0.77020873  0.21220084     0.36300
C2530       C  0.66170643  0.65968656  0.21893836     0.36200
N2531       N  0.85730384  0.79281648  0.21109026    -0.44100
N2532       N  0.62843059  0.63809042  0.22013070    -0.44100
C2533       C  0.77827759  0.62389948  0.26767967    -0.00500
C2534       C  0.76904253  0.60652413  0.28247418    -0.12400
C2535       C  0.79823996  0.60800004  0.29290225     0.01800
C2536       C  0.83791409  0.62715878  0.28859438    -0.00600
C2537       C  0.84709834  0.64477686  0.27380841    -0.12300
C2538       C  0.81786781  0.64304413  0.26335924     0.01600
H2539       H  0.73882726  0.59194357  0.28597300     0.14600
H2540       H  0.87715075  0.65887053  0.27012772     0.14600
C2541       C  0.82910990  0.65879660  0.24789735     0.36300
C2542       C  0.78655681  0.59013466  0.30802422     0.36200
N2543       N  0.83821490  0.67110843  0.23547426    -0.44100
N2544       N  0.77733501  0.57577041  0.32014238    -0.44100
C2545       C  0.94139943  0.95242904  0.21456952    -0.00500
C2546       C  0.95010708  0.93987542  0.20040832    -0.12400
C2547       C  0.92015745  0.91340320  0.18970713     0.01800
C2548       C  0.88021505  0.89813813  0.19323533    -0.00600
C2549       C  0.87159342  0.91087703  0.20736342    -0.12300
C2550       C  0.90148706  0.93757094  0.21798136     0.01600
H2551       H  0.98050944  0.95154414  0.19749259     0.14600
H2552       H  0.84123266  0.89911177  0.21036627     0.14600
C2553       C  0.88992235  0.94766637  0.23255154     0.36300
C2554       C  0.93153375  0.90380108  0.17497690     0.36200
N2555       N  0.88031470  0.95554219  0.24418536    -0.44100
N2556       N  0.94072967  0.89630709  0.16315988    -0.44100
C2557       C  0.99045418  0.06306528  0.25433806    -0.00500
C2558       C  0.94989045  0.55678044  0.25350304    -0.12400
C2559       C  0.93762918  0.57406985  0.26495395     0.01800
C2560       C  0.96505721  0.60147716  0.27636520    -0.00600
C2561       C  0.00424516  0.10637845  0.27782565    -0.12300
C2562       C  0.01680629  0.08815003  0.26668903     0.01600
H2563       H  0.92783842  0.53479861  0.24526656     0.14600
H2564       H  0.02394684  0.12392855  0.28763551     0.14600
C2565       C  0.05635750  0.09489403  0.26874305     0.36300
C2566       C  0.89649577  0.56267741  0.26469414     0.36200
N2567       N  0.08810208  0.10045614  0.27047546    -0.44100
N2568       N  0.36813954  0.56918173  0.26140275    -0.44100
C2569       C  0.84945351  0.55306916  0.36146879    -0.00500
C2570       C  0.82423046  0.56089737  0.37033572    -0.12400
C2571       C  0.79536021  0.02966168  0.37945408     0.01800
C2572       C  0.80439813  0.00018549  0.38515915    -0.00600
C2573       C  0.83606462  0.99786742  0.37881273    -0.12300
C2574       C  0.85766061  0.02312604  0.36686847     0.01600
H2575       H  0.82089525  0.58690105  0.36774679     0.14600
H2576       H  0.84367225  0.97569384  0.38295847     0.14600
C2577       C  0.88888946  0.01836107  0.36043282     0.36300
C2578       C  0.77401288  0.54312807  0.38948300     0.36200
N2579       N  0.91374803  0.01428265  0.35525630    -0.44100
N2580       N  0.75165088  0.55013066  0.39534612    -0.44100
C2581       C  0.70398897  0.95187543  0.42558076    -0.00500
C2582       C  0.66847395  0.91753979  0.42890224    -0.12400
C2583       C  0.64260275  0.91980469  0.43923854     0.01800
C2584       C  0.65217679  0.95714733  0.44670296    -0.00600
C2585       C  0.68655166  0.99199404  0.44271849    -0.12300
C2586       C  0.71251426  0.98970691  0.43229744     0.01600
H2587       H  0.66095921  0.88852136  0.42349655     0.14600
H2588       H  0.69890574  0.51477343  0.45129686     0.14600
C2589       C  0.74866705  0.02624337  0.42958479     0.36300
C2590       C  0.60630056  0.88320287  0.44185156     0.36200
N2591       N  0.78665889  0.54496097  0.43403085    -0.44100
N2592       N  0.57726906  0.85389507  0.44396197    -0.44100
C2593       C  0.58877474  0.71588000  0.38125339    -0.00500
C2594       C  0.54930583  0.69004095  0.38463664    -0.12400
C2595       C  0.51824655  0.68657939  0.37476254     0.01800
C2596       C  0.52615485  0.70956066  0.36102142    -0.00600
C2597       C  0.56571880  0.73466510  0.35748373    -0.03900
C2598       C  0.59669013  0.73763737  0.36722607     0.01600
H2599       H  0.54251785  0.67284091  0.39524397     0.14600
H2600       H  0.57271969  0.75190831  0.34688534     0.14600
C2601       C  0.63616770  0.76185198  0.36201808     0.36300
C2602       C  0.47872798  0.65968790  0.37935582     0.36200
N2603       N  0.66769103  0.78101296  0.35770567    -0.44100
N2604       N  0.94495408  0.63456101  0.38280842    -0.44100
C2605       C  0.63618278  0.66122854  0.42447215    -0.00500
C2606       C  0.66112408  0.67260978  0.43810564    -0.12400
C2607       C  0.65462787  0.64568244  0.45016866     0.01800
C2608       C  0.62288174  0.60588136  0.44878193    -0.00600
C2609       C  0.59899014  0.59359392  0.43491141    -0.12300
C2610       C  0.60503273  0.62079625  0.42288479     0.01600
H2611       H  0.68541993  0.70317745  0.43965027     0.14600
H2612       H  0.57453029  0.56300938  0.43371972     0.14600
C2613       C  0.57858523  0.60619035  0.40918397     0.36300
C2614       C  0.68130419  0.65963707  0.46382595     0.36200
N2615       N  0.55721658  0.59441963  0.39824711    -0.44100
N2616       N  0.70267548  0.67078842  0.47476402    -0.44100
C2617       C  0.87387629  0.77423545  0.39106909    -0.00500
C2618       C  0.91060204  0.77591876  0.39267958    -0.12400
C2619       C  0.92288056  0.75806283  0.38146551     0.01800
C2620       C  0.89787328  0.73677107  0.36840376    -0.00600
C2621       C  0.86003831  0.73205138  0.36725000    -0.12300
C2622       C  0.84795306  0.75095814  0.37829611     0.01600
H2623       H  0.93090335  0.79270165  0.40243362     0.14600
H2624       H  0.84073918  0.71555357  0.35719262     0.14600
C2625       C  0.80965042  0.74715858  0.37566547     0.36300
C2626       C  0.96180165  0.76287697  0.38348317     0.36200
N2627       N  0.77900910  0.74416755  0.37339570    -0.44100
N2628       N  0.99305060  0.76698096  0.38502285    -0.44100
C2629       C  0.91957477  0.86863727  0.43617871    -0.00500
C2630       C  0.93071077  0.84537118  0.44533939    -0.12400
C2631       C  0.96294897  0.86331003  0.45603403     0.01800
C2632       C  0.98569374  0.90596386  0.45759319    -0.00600
C2633       C  0.97390754  0.92932939  0.44859068    -0.12300
C2634       C  0.94092871  0.91099725  0.43805353     0.01600
H2635       H  0.91450280  0.81272577  0.44385323     0.14600
H2636       H  0.48739308  0.95910947  0.45006817     0.14600
C2637       C  0.93074728  0.93609179  0.42869782     0.36300
C2638       C  0.97270473  0.83674773  0.46462371     0.36200
N2639       N  0.92227076  0.95592646  0.42116422    -0.44100
N2640       N  0.98036389  0.81541357  0.47154406    -0.44100
C2641       C  0.80782789  0.93219495  0.61949886    -0.00500
C2642       C  0.81685762  0.91787218  0.60578245    -0.12400
C2643       C  0.83865694  0.94418126  0.59399951     0.01800
C2644       C  0.85777294  0.48885106  0.59559593    -0.00600
C2645       C  0.85199300  0.50423657  0.60969430    -0.12300
C2646       C  0.83172663  0.47902182  0.62185114     0.01600
H2647       H  0.80704328  0.88593724  0.60424538     0.14600
H2648       H  0.86417812  0.53657141  0.61140982     0.14600
C2649       C  0.82876358  0.49835562  0.63605233     0.36300
C2650       C  0.84523563  0.92699032  0.57998809     0.36200
N2651       N  0.82686928  0.51420562  0.64741903    -0.44100
N2652       N  0.85018189  0.91298442  0.56873802    -0.44100
C2653       C  0.46008057  0.53151714  0.55473534    -0.00500
C2654       C  0.94897818  0.49888023  0.54980325    -0.12400
C2655       C  0.97244379  0.49290464  0.53917152     0.01800
C2656       C  0.50855656  0.52273666  0.53274424    -0.00600
C2657       C  0.51842112  0.56088798  0.53921776    -0.12300
C2658       C  0.49490425  0.56554381  0.55012168     0.01600
H2659       H  0.92148438  0.47325140  0.55297081     0.14600
H2660       H  0.54449522  0.58758533  0.53562336     0.14600
C2661       C  0.50774138  0.60572831  0.55646168     0.36300
C2662       C  0.95017633  0.95190458  0.52973768     0.36200
N2663       N  0.51815204  0.63795736  0.56151451    -0.44100
N2664       N  0.93718588  0.92063440  0.52336946    -0.44100
C2665       C  0.56791083  0.76502469  0.59812235    -0.00500
C2666       C  0.60710734  0.79423612  0.59578584    -0.12400
C2667       C  0.63800595  0.79828652  0.60585347     0.01800
C2668       C  0.63012075  0.77279716  0.61881603    -0.00600
C2669       C  0.59070920  0.74472033  0.62148348    -0.12300
C2670       C  0.55988348  0.74069844  0.61145304     0.01600
H2671       H  0.61396804  0.81341762  0.58574411     0.14600
H2672       H  0.58367559  0.72536234  0.63147772     0.14600
C2673       C  0.52042059  0.71163133  0.61546974     0.36300
C2674       C  0.67738086  0.82810719  0.60212128     0.36200
N2675       N  0.48892784  0.68827324  0.61878019    -0.44100
N2676       N  0.70882222  0.85205386  0.59900687    -0.44100
C2677       C  0.54081654  0.87509239  0.53029446    -0.00500
C2678       C  0.51102399  0.83519683  0.52718394    -0.12400
C2679       C  0.50189855  0.80540418  0.53823000     0.01800
C2680       C  0.52225602  0.81540705  0.55313241    -0.00600
C2681       C  0.55173488  0.85555898  0.55632979    -0.12300
C2682       C  0.56145514  0.88517312  0.54505532     0.01600
H2683       H  0.49531028  0.82688958  0.51582474     0.14600
H2684       H  0.56803390  0.86373028  0.56755124     0.14600
C2685       C  0.59497001  0.92450030  0.54851051     0.36300
C2686       C  0.47327336  0.76454652  0.53331391     0.36200
N2687       N  0.62239505  0.95558895  0.55136127    -0.44100
N2688       N  0.93686781  0.81610058  0.56649496    -0.44100
C2689       C  0.76127895  0.75016185  0.61020716    -0.00500
C2690       C  0.79992012  0.75699120  0.61080209    -0.12400
C2691       C  0.81258202  0.73958399  0.59933407     0.01800
C2692       C  0.78591328  0.71444532  0.58706833    -0.00600
C2693       C  0.74873516  0.71180415  0.58571032    -0.12300
C2694       C  0.73636101  0.72928657  0.59707425     0.01600
H2695       H  0.81962365  0.77423764  0.62065657     0.14600
H2696       H  0.72828736  0.69461184  0.57605014     0.14600
C2697       C  0.69769961  0.72510292  0.59506492     0.36300
C2698       C  0.85265233  0.74760995  0.60078050     0.36200
N2699       N  0.66683204  0.72195315  0.59349644    -0.44100
N2700       N  0.88489562  0.75442647  0.60197383    -0.44100
C2701       C  0.66896272  0.56677826  0.52562543    -0.00500
C2702       C  0.70678012  0.58771156  0.51975442    -0.12400
C2703       C  0.74010637  0.60725921  0.52996889     0.01800
C2704       C  0.73564888  0.60721297  0.54632870    -0.00600
C2705       C  0.69800349  0.58516409  0.55221135    -0.12300
C2706       C  0.66481979  0.56445491  0.54206527     0.01600
H2707       H  0.71021641  0.58932957  0.50715511     0.14600
H2708       H  0.69443613  0.58510487  0.56479490     0.14600
C2709       C  0.62676884  0.54328069  0.54886133     0.36300
C2710       C  0.77829936  0.62900139  0.52338182     0.36200
N2711       N  0.59641761  0.52621992  0.55439576    -0.44100
N2712       N  0.80898207  0.64626930  0.51813646    -0.44100
C2713       C  0.63181886  0.69492971  0.69214861    -0.00500
C2714       C  0.61754044  0.65344285  0.68936355    -0.12400
C2715       C  0.59448653  0.62491922  0.70015513     0.01800
C2716       C  0.58546574  0.63758190  0.71438164    -0.00600
C2717       C  0.59915934  0.67894727  0.71711145    -0.12300
C2718       C  0.62196548  0.70752778  0.70621848     0.01600
H2719       H  0.62431605  0.64296795  0.67861800     0.14600
H2720       H  0.59223584  0.68918180  0.72788249     0.14600
C2721       C  0.63358460  0.74920368  0.70975247     0.36300
C2722       C  0.57940641  0.58283411  0.69588707     0.36200
N2723       N  0.64247571  0.78240365  0.71279138    -0.44100
N2724       N  0.56727828  0.54914854  0.69241403    -0.44100
C2725       C  0.50043901  0.60288473  0.75957646    -0.00500
C2726       C  0.50696931  0.59926587  0.77562779    -0.12400
C2727       C  0.49186722  0.61397341  0.78709430     0.01800
C2728       C  0.96853238  0.63019796  0.78229481    -0.00600
C2729       C  0.96737824  0.63866077  0.76638425    -0.12300
C2730       C  0.98507397  0.62621985  0.75518541     0.01600
H2731       H  0.52522690  0.58644322  0.77921072     0.14600
H2732       H  0.95402432  0.65655257  0.76279341     0.14600
C2733       C  0.98391388  0.63698148  0.73907216     0.36300
C2734       C  0.50065260  0.61115542  0.80347198     0.36200
N2735       N  0.98311581  0.64576358  0.72616989    -0.44100
N2736       N  0.50769720  0.60915776  0.81661724    -0.44100
C2737       C  0.71265292  0.53770045  0.76110395    -0.00500
C2738       C  0.75100667  0.55001456  0.75656455    -0.12400
C2739       C  0.78343933  0.57260453  0.76681876     0.01800
C2740       C  0.77774844  0.58309628  0.78212584    -0.00600
C2741       C  0.73974773  0.57394531  0.78614732    -0.12300
C2742       C  0.70729051  0.55167161  0.77578053     0.01600
H2743       H  0.75559431  0.54033510  0.74516239     0.14600
H2744       H  0.73511671  0.58273169  0.79771100     0.14600
C2745       C  0.66883182  0.54122131  0.78106526     0.36300
C2746       C  0.82163839  0.58165168  0.76162999     0.36200
N2747       N  0.63807503  0.53298630  0.78534070    -0.44100
N2748       N  0.85217523  0.58882673  0.75742787    -0.44100
C2749       C  0.65866413  0.91410200  0.72400483    -0.00500
C2750       C  0.63473056  0.89599419  0.71035132    -0.12400
C2751       C  0.64538639  0.87656095  0.69899927     0.01800
C2752       C  0.68088642  0.87585601  0.70111427    -0.00600
C2753       C  0.70269279  0.89024432  0.71534142    -0.12300
C2754       C  0.69139633  0.90827683  0.72694533     0.01600
H2755       H  0.60895781  0.89907031  0.70803892     0.14600
H2756       H  0.72914620  0.88811471  0.71724655     0.14600
C2757       C  0.71428426  0.92068132  0.74163412     0.36300
C2758       C  0.62106052  0.86032906  0.68477880     0.36200
N2759       N  0.73256784  0.93042040  0.75340921    -0.44100
N2760       N  0.60156625  0.84715702  0.67338847    -0.44100
C2761       C  0.92571920  0.75086406  0.77706735    -0.00500
C2762       C  0.95779160  0.76771203  0.76728730    -0.12400
C2763       C  0.95962850  0.79290062  0.75520241     0.01800
C2764       C  0.92919702  0.80227199  0.75282667    -0.00600
C2765       C  0.89626549  0.78414954  0.76210537    -0.12300
C2766       C  0.89420270  0.75859448  0.77415957     0.01600
H2767       H  0.98153908  0.76101635  0.76901350     0.14600
H2768       H  0.87284380  0.79132568  0.76038495     0.14600
C2769       C  0.86022605  0.74234770  0.78373273     0.36300
C2770       C  0.99268638  0.80794829  0.74516271     0.36200
N2771       N  0.83299081  0.72920497  0.79139028    -0.44100
N2772       N  0.01906900  0.81978921  0.73707439    -0.44100
C2773       C  0.81410775  0.85152441  0.69198205    -0.00500
C2774       C  0.80512862  0.83585213  0.70709381    -0.12400
C2775       C  0.83448175  0.83817318  0.71764249     0.01800
C2776       C  0.87381573  0.85634858  0.71311374    -0.00600
C2777       C  0.88264093  0.87111054  0.69790538    -0.12300
C2778       C  0.85336438  0.86859114  0.68732820     0.01600
H2779       H  0.77526159  0.82293905  0.71090440     0.14600
H2780       H  0.91262994  0.88441124  0.69419287     0.14600
C2781       C  0.86445572  0.88279838  0.67165817     0.36300
C2782       C  0.82372071  0.82387125  0.73330809     0.36200
N2783       N  0.87338683  0.89406786  0.65909688    -0.44100
N2784       N  0.81492244  0.81253291  0.74586889    -0.44100
C2785       C  0.58304842  0.75519676  0.88271177    -0.00500
C2786       C  0.54476683  0.74686595  0.88591600    -0.12400
C2787       C  0.51338724  0.72643736  0.87490542     0.01800
C2788       C  0.51995354  0.71373726  0.86023013    -0.00600
C2789       C  0.55761870  0.72015463  0.85725783    -0.12300
C2790       C  0.58898467  0.74041209  0.86826894     0.01600
H2791       H  0.53929607  0.75683487  0.89701333     0.14600
H2792       H  0.56281374  0.71007317  0.84605687     0.14600
C2793       C  0.62693961  0.74677121  0.86393216     0.36300
C2794       C  0.47541656  0.72115078  0.87863849     0.36200
N2795       N  0.65715255  0.75151207  0.86033051    -0.44100
N2796       N  0.44500314  0.71691867  0.88163112    -0.44100
C2797       C  0.63858074  0.86002032  0.92583270    -0.00500
C2798       C  0.67324701  0.89090759  0.93323761    -0.12400
C2799       C  0.67250936  0.91765554  0.94443020     0.01800
C2800       C  0.63623169  0.91366329  0.94886625    -0.00600
C2801       C  0.60157068  0.88372431  0.94122535    -0.12300
C2802       C  0.60230763  0.85715467  0.92979957     0.01600
H2803       H  0.70153929  0.89473756  0.93017792     0.14600
H2804       H  0.57359053  0.88064769  0.94434785     0.14600
C2805       C  0.56501887  0.82740693  0.92270809     0.36300
C2806       C  0.70984750  0.94994314  0.95060039     0.36200
N2807       N  0.53441968  0.80429883  0.91730556    -0.44100
N2808       N  0.73369121  0.48776164  0.94728150    -0.44100
C2809       C  0.79492880  0.67527119  0.88335615    -0.00500
C2810       C  0.78152261  0.63376465  0.88105311    -0.12400
C2811       C  0.79783833  0.61954977  0.87000854     0.01800
C2812       C  0.82844419  0.64696690  0.86079046    -0.00600
C2813       C  0.84285898  0.68854600  0.86329245    -0.12300
C2814       C  0.82627058  0.70288582  0.87436915     0.01600
H2815       H  0.75774495  0.61192670  0.88782997     0.14600
H2816       H  0.86660850  0.70983918  0.85635870     0.14600
C2817       C  0.84253497  0.74595383  0.87640426     0.36300
C2818       C  0.78337490  0.57655752  0.86876724     0.36200
N2819       N  0.85560126  0.78050361  0.87800583    -0.44100
N2820       N  0.77190188  0.54216294  0.86780890    -0.44100
C2821       C  0.71713688  0.64231768  0.93011653    -0.00500
C2822       C  0.74039082  0.63023799  0.93866925    -0.12400
C2823       C  0.72420483  0.59985837  0.94955988     0.01800
C2824       C  0.68317622  0.58016082  0.95202629    -0.00600
C2825       C  0.66024204  0.59389482  0.94390661    -0.12300
C2826       C  0.67691221  0.62478404  0.93306158     0.01600
H2827       H  0.77149875  0.64410017  0.93652577     0.14600
H2828       H  0.62898872  0.57981018  0.94567840     0.14600
C2829       C  0.65180581  0.63617393  0.92438902     0.36300
C2830       C  0.75085226  0.58910697  0.95741706     0.36200
N2831       N  0.63180304  0.64536687  0.91737626    -0.44100
N2832       N  0.77245689  0.58066706  0.96358528    -0.44100
C2833       C  0.87479694  0.52697470  0.85762598    -0.00500
C2834       C  0.83851315  0.49261426  0.86009355    -0.12400
C2835       C  0.83483123  0.46390301  0.87087547     0.01800
C2836       C  0.86826449  0.46910905  0.87992136    -0.00600
C2837       C  0.90491984  0.50290215  0.87711647    -0.12300
C2838       C  0.90854116  0.53147623  0.86605561     0.01600
H2839       H  0.81218760  0.48814269  0.85370739     0.14600
H2840       H  0.93104349  0.50718547  0.88357140     0.14600
C2841       C  0.94735017  0.56446251  0.86346437     0.36300
C2842       C  0.79089490  0.95153615  0.88513929     0.36200
N2843       N  0.97848420  0.59079097  0.86133866    -0.44100
N2844       N  0.75940298  0.93052972  0.88915673    -0.44100
C2845       C  0.98450742  0.94240013  0.94891115    -0.00500
C2846       C  0.99578610  0.46618137  0.93414321    -0.12400
C2847       C  0.96709649  0.45686244  0.92196071     0.01800
C2848       C  0.92428972  0.92682571  0.92582019    -0.00600
C2849       C  0.91686167  0.90171847  0.93873651    -0.12300
C2850       C  0.94633793  0.90925600  0.95021202     0.01600
H2851       H  0.02602699  0.48868061  0.93233449     0.14600
H2852       H  0.88751484  0.87685107  0.94026134     0.14600
C2853       C  0.93658497  0.88250278  0.96323281     0.36300
C2854       C  0.97991902  0.47588115  0.90711596     0.36200
N2855       N  0.92882483  0.86104602  0.97364851    -0.44100
N2856       N  0.99058160  0.49101975  0.89521803    -0.44100
C2857       C  0.81501373  0.95312001  0.11477220    -0.00500
C2858       C  0.80117074  0.94190190  0.09912699    -0.12400
C2859       C  0.81227351  0.97099999  0.08757026     0.01800
C2860       C  0.83744540  0.01230448  0.09168138    -0.00600
C2861       C  0.85328179  0.02298291  0.10716519    -0.12300
C2862       C  0.84214074  0.99381744  0.11868701     0.01600
H2863       H  0.78071537  0.91049162  0.09602988     0.14600
H2864       H  0.85288458  0.55468688  0.11392284     0.14600
C2865       C  0.85836322  0.00635253  0.13452966     0.36300
C2866       C  0.79771576  0.95760492  0.07158153     0.36200
N2867       N  0.87148925  0.01631466  0.14722098    -0.44100
N2868       N  0.78624765  0.94682889  0.05875446    -0.44100
C2869       C  0.72304070  0.54883408  0.02772905    -0.00500
C2870       C  0.71576667  0.03532996  0.04347546    -0.12400
C2871       C  0.74527234  0.04205345  0.05477862     0.01800
C2872       C  0.78136290  0.56471869  0.05159362    -0.00600
C2873       C  0.79184645  0.58202650  0.03684324    -0.12300
C2874       C  0.76329161  0.57466046  0.02500442     0.01600
H2875       H  0.68534554  0.01518139  0.04604985     0.14600
H2876       H  0.82260971  0.60065228  0.03437733     0.14600
C2877       C  0.77643846  0.59473379  0.01035125     0.36300
C2878       C  0.73363831  0.02401125  0.06987177     0.36200
N2879       N  0.78728252  0.61127892  0.99872012    -0.44100
N2880       N  0.72429898  0.00978097  0.08200358    -0.44100
C2881       C  0.91042463  0.80658363  0.09525687    -0.00500
C2882       C  0.89198594  0.82949151  0.09200388    -0.12400
C2883       C  0.86998443  0.83565582  0.10331530     0.01800
C2884       C  0.86619926  0.81865805  0.11826949    -0.00600
C2885       C  0.88591952  0.79701550  0.12160946    -0.12300
C2886       C  0.90791349  0.79102477  0.11040240     0.01600
H2887       H  0.89416657  0.84204537  0.08048651     0.14600
H2888       H  0.88393470  0.78420765  0.13306496     0.14600
C2889       C  0.92840753  0.76969410  0.11504221     0.36300
C2890       C  0.85265436  0.86032500  0.09928945     0.36200
N2891       N  0.94478155  0.75262754  0.11881609    -0.44100
N2892       N  0.83906259  0.88028977  0.09591154    -0.44100
C2893       C  0.98999076  0.84810738  0.04850648    -0.00500
C2894       C  0.02103255  0.88575249  0.05362219    -0.12400
C2895       C  0.54173560  0.92161716  0.04405527     0.01800
C2896       C  0.53339757  0.91274472  0.02774014    -0.00600
C2897       C  0.99604279  0.87225580  0.02192941    -0.12300
C2898       C  0.97804852  0.84095174  0.03246195     0.01600
H2899       H  0.52871364  0.89827858  0.06733045     0.14600
H2900       H  0.98587728  0.86700221  0.00968259     0.14600
C2901       C  0.94661994  0.80224678  0.02667535     0.36300
C2902       C  0.56738312  0.96228038  0.05011587     0.36200
N2903       N  0.92158496  0.77113813  0.02204853    -0.44100
N2904       N  0.58794908  0.99484560  0.05497330    -0.44100
C2905       C  0.62269376  0.73497677  0.09733896    -0.00500
C2906       C  0.61887735  0.76667975  0.10419513    -0.12400
C2907       C  0.64729320  0.79491277  0.11492820     0.01800
C2908       C  0.68142746  0.79250773  0.11906035    -0.00600
C2909       C  0.68517972  0.76062908  0.11231566    -0.12300
C2910       C  0.65637253  0.73197607  0.10172579     0.01600
H2911       H  0.59338872  0.76975192  0.10117117     0.14600
H2912       H  0.71071079  0.75768566  0.11541659     0.14600
C2913       C  0.66209821  0.69944355  0.09601316     0.36300
C2914       C  0.64017425  0.82597333  0.12130938     0.36200
N2915       N  0.66680470  0.67336068  0.09153679    -0.44100
N2916       N  0.63418171  0.85064983  0.12642433    -0.44100
C2917       C  0.56894429  0.62240434  0.05692232    -0.00500
C2918       C  0.60518370  0.63449664  0.05013103    -0.12400
C2919       C  0.60891472  0.61065084  0.03829850     0.01800
C2920       C  0.57566688  0.57390771  0.03293270    -0.00600
C2921       C  0.54021603  0.56084153  0.04048838    -0.12300
C2922       C  0.53670817  0.58428146  0.05242434     0.01600
H2923       H  0.63032471  0.66344362  0.05360522     0.14600
H2924       H  0.51488504  0.53197762  0.03707221     0.14600
C2925       C  0.49976175  0.56785592  0.06006893     0.36300
C2926       C  0.64682270  0.62559765  0.03155315     0.36200
N2927       N  0.47017232  0.55447035  0.06621055    -0.44100
N2928       N  0.67587203  0.13339752  0.03174674    -0.44100
loop_ 
_geom_bond_atom_site_label_1 
_geom_bond_atom_site_label_2 
_geom_bond_distance 
_geom_bond_site_symmetry_2 
_ccdc_geom_bond_type 
C1            N2   1.364       .  A
C1            N6   1.366       .  A
C1          C709   1.496       .  S
N2         C1467   1.357       .  A
C3         N1466   1.355       .  A
C3         N1468   1.352       .  A
C3           C21   1.461       .  S
N4            C5   1.354       .  A
N4         C1467   1.350       .  A
C5            N6   1.364       .  A
C5          C721   1.489       .  S
C7            N8   1.361       .  A
C7           N12   1.361       .  A
C7          C697   1.475       .  S
N8            C9   1.358       .  A
C9           N10   1.353       .  A
C9           C23   1.459       .  S
N10          C11   1.355       .  A
C11          N12   1.357       .  A
C11         C685   1.474       .  S
C13          N18   1.359       .  A
C13         N746   1.354       .  A
C13         C676   1.482       .  S
N14         C745   1.359       .  A
N14         C747   1.360       .  A
C15          N16   1.357       .  A
C15         N746   1.355       .  A
C15        C1396   1.475       .  S
N16          C17   1.358       .  A
C17          N18   1.358       .  A
C17          C19   1.461       .  S
C19          N20   1.355       .  A
C19          N24   1.355       .  A
N20          C21   1.357       .  A
C21          N22   1.359       .  A
N22          C23   1.359       .  A
C23          N24   1.357       .  A
C25          N26   1.360       .  A
C25          N30   1.364       .  A
C25         C652   1.500       .  S
N26          C27   1.359       .  A
C27          N28   1.361       .  A
C27        C1372   1.485       .  S
N28          C29   1.358       .  A
C29          N30   1.360       .  A
C29          C39   1.473       .  S
C31          N32   1.354       .  A
C31          N36   1.360       .  A
C31         C625   1.482       .  S
N32          C33   1.355       .  A
C33          N34   1.359       .  A
C33         C613   1.491       .  S
N34          C35   1.362       .  A
C35          N36   1.363       .  A
C35          C37   1.467       .  S
C37          N38   1.358       .  A
C37          N42   1.359       .  A
N38          C39   1.358       .  A
C39          N40   1.362       .  A
N40          C41   1.362       .  A
C41          N42   1.360       .  A
C41          C45   1.472       .  S
C43          N44   1.361       .  A
C43          N48   1.362       .  A
C43         C589   1.490       .  S
N44          C45   1.358       .  A
C45          N46   1.359       .  A
N46          C47   1.362       .  A
C47          N48   1.361       .  A
C47         C601   1.490       .  S
O49       Ni2251   1.936       .  S
O49        C1534   1.274       .  A
O50         Ni73   1.909       .  S
O50          C59   1.265       .  A
O51         Ni55   1.909   1_545  S
O51         Ni73   1.910   1_556  S
O51        Ni799   1.919   1_545  S
O51          H74   0.966       .  S
C52         C604   1.495       .  S
C52          O69   1.282       .  A
C52          O61   1.275       .  A
O53        Ni804   1.916   1_544  S
O53          C59   1.264       .  A
O54        Ni804   1.899   1_545  S
O54          C56   1.266       .  A
Ni55         O58   1.940   1_566  S
Ni55       O2245   1.932       .  S
Ni55        O792   1.903   1_556  S
C56         C628   1.494       .  S
C56          O66   1.273       .  A
O57         Ni73   1.902       .  S
O57          C63   1.270       .  A
O58          C63   1.279       .  A
C59         C673   1.482       .  S
O60        Ni787   1.908   1_554  S
O60          C62   1.268       .  A
O61         Ni72   1.914       .  S
C62         C700   1.480       .  S
C62          O68   1.274       .  A
C63         C724   1.491       .  S
H64          O65   0.966       .  S
O65         Ni67   1.911       .  S
O65         Ni72   1.908       .  S
O65        Ni805   1.908   1_556  S
O66        Ni799   1.933   1_545  S
Ni67         O71   1.919       .  S
Ni67         O69   1.941       .  S
Ni67        O798   1.927       .  S
Ni67        O783   1.921       .  S
O68        Ni805   1.940       .  S
C70        C2113   1.495   1_455  S
C70          O71   1.271       .  A
C70        O1513   1.275       .  A
Ni72        O785   1.923   1_556  S
Ni72        O786   1.901       .  S
Ni73        O800   1.928   1_545  S
Ni73        O797   1.903   1_544  S
C75          N76   1.360       .  A
C75          N80   1.363       .  A
C75         C580   1.486       .  S
N76          C77   1.354       .  A
C77          N78   1.351       .  A
C77        C1559   1.461       .  S
N78          C79   1.356       .  A
C79          N80   1.363       .  A
C79         C568   1.484       .  S
C81          N82   1.364       .  A
C81         N818   1.354       .  A
C81         C553   1.498       .  S
N82         C815   1.365       .  A
C83          N84   1.360   1_565  A
C83         N814   1.358       .  A
C83          C93   1.464       .  S
N84          C85   1.359       .  A
C85          N86   1.355   1_545  A
C85         C541   1.486       .  S
N86         C813   1.356       .  A
C87          N88   1.361       .  A
C87          N92   1.360       .  A
C87         C529   1.477       .  S
N88          C89   1.358       .  A
C89          N90   1.354       .  A
C89         C520   1.480       .  S
N90          C91   1.351       .  A
C91          N92   1.357       .  A
C91          C97   1.455       .  S
C93          N98   1.356   1_565  A
C93         N826   1.358       .  A
N94          C95   1.358       .  A
N94         C825   1.354       .  A
C95         N828   1.362       .  A
C95        C1541   1.461   1_455  S
N96          C97   1.355   1_565  A
N96         C827   1.356       .  A
C97          N98   1.356       .  A
O99       Ni1569   1.937   1_455  S
O99         C120   1.275   1_455  A
O100       Ni123   1.904       .  S
O100        C109   1.264       .  A
O101       Ni105   1.916       .  S
O101       Ni123   1.916       .  S
O101       Ni117   1.922       .  S
O101        H124   0.966       .  S
C102        C637   1.495       .  S
C102        O119   1.276       .  A
C102        O111   1.275       .  A
O103       Ni122   1.930       .  S
O103        C109   1.269       .  A
O104       Ni122   1.901       .  S
O104        C106   1.268       .  A
Ni105       O108   1.932       .  S
Ni105       O110   1.901       .  S
Ni105      O1563   1.923       .  S
C106        C616   1.482       .  S
C106        O116   1.272       .  A
O107       Ni123   1.898       .  S
O107        C113   1.267       .  A
O108        C113   1.275       .  A
C109        C544   1.487       .  S
O110        C112   1.267       .  A
O111       Ni122   1.913       .  S
C112        C532   1.477       .  S
C112        O118   1.274       .  A
C113        C565   1.489       .  S
H114        O115   0.966       .  S
O115       Ni123   1.900       .  S
O115       Ni117   1.910       .  S
O115       Ni122   1.911       .  S
O116       Ni117   1.935       .  S
Ni117       O121   1.907       .  S
Ni117       O119   1.925       .  S
O118       Ni123   1.940       .  S
C120        C592   1.496   1_655  S
C120       O1585   1.269       .  A
O121       C1584   1.268       .  A
C125        N126   1.358       .  A
C125        N130   1.357       .  A
C125        C496   1.498       .  S
N126        C127   1.360       .  A
C127        N128   1.363       .  A
C127        C143   1.466       .  S
N128        C129   1.359       .  A
C129        N130   1.354       .  A
C129        C508   1.474       .  S
C131        N132   1.357       .  A
C131        N136   1.359       .  A
C131        C469   1.483       .  S
N132        C133   1.357       .  A
C133        N134   1.359   1_455  A
C133        C484   1.474       .  S
N134        C135   1.360       .  A
C135        N136   1.358   1_655  A
C135       C1611   1.466       .  S
C137        N138   1.361       .  A
C137        N142   1.357       .  A
C137       C1921   1.479       .  S
N138        C139   1.361       .  A
C139        N140   1.361       .  A
C139        C448   1.488   1_545  S
N140        C141   1.354       .  A
C141        N142   1.352       .  A
C141        C145   1.461       .  S
C143        N144   1.358       .  A
C143        N148   1.357       .  A
N144        C145   1.359       .  A
C145        N146   1.359       .  A
N146        C147   1.356       .  A
C147        N148   1.357       .  A
C147       C1599   1.464       .  S
O149       Ni155   1.916       .  S
O149        C170   1.271       .  A
O150       Ni173   1.899       .  S
O150        C159   1.266       .  A
O151       Ni155   1.918       .  S
O151       Ni173   1.905       .  S
O151       Ni167   1.920       .  S
O151        H174   0.966       .  S
C152        C556   1.482       .  S
C152        O169   1.266       .  A
C152        O161   1.272       .  A
O153       Ni172   1.924       .  S
O153        C159   1.272       .  A
O154       Ni172   1.894       .  S
O154        C156   1.268       .  A
Ni155       O158   1.933       .  S
Ni155       O160   1.898       .  S
C156        C577   1.493       .  S
C156        O166   1.279       .  A
O157       Ni173   1.911       .  S
O157        C163   1.267       .  A
O158        C163   1.271       .  A
C159        C445   1.483       .  S
O160        C162   1.269       .  A
O161       Ni172   1.937       .  S
C162        C472   1.488       .  S
C162        O168   1.277       .  A
C163        C493   1.481       .  S
H164        O165   0.966       .  S
O165       Ni173   1.922       .  S
O165       Ni167   1.905       .  S
O165       Ni172   1.916       .  S
O166       Ni167   1.952       .  S
Ni167       O171   1.899       .  S
Ni167       O169   1.911       .  S
O168       Ni173   1.946       .  S
C170        C517   1.489       .  S
C170        O171   1.265       .  A
C175        N176   1.361       .  A
C175        N180   1.355       .  A
C175        C421   1.497       .  S
N176        C177   1.364       .  A
C177        N178   1.362       .  A
C177        C193   1.468       .  S
N178        C179   1.358       .  A
C179        N180   1.352       .  A
C179        C433   1.474       .  S
C181        N182   1.360       .  A
C181        N186   1.363       .  A
C181        C397   1.492       .  S
N182        C183   1.354       .  A
C183        N184   1.354       .  A
C183        C197   1.465       .  S
N184        C185   1.359       .  A
C185        N186   1.362       .  A
C185        C409   1.492       .  S
C187        N188   1.359       .  A
C187        N192   1.361       .  A
C187        C385   1.488       .  S
N188        C189   1.357       .  A
C189        N190   1.359       .  A
C189        C195   1.470       .  S
N190        C191   1.364       .  A
C191        N192   1.363       .  A
C191        C376   1.505       .  S
C193        N194   1.361       .  A
C193        N198   1.357       .  A
N194        C195   1.360       .  A
C195        N196   1.359       .  A
N196        C197   1.359       .  A
C197        N198   1.357       .  A
O199       Ni205   1.914       .  S
O199        C220   1.269       .  A
O200       Ni223   1.896       .  S
O200        C209   1.264       .  A
O201       Ni205   1.916       .  S
O201       Ni217   1.926       .  S
O201       Ni955   1.910       .  S
O201        H224   0.965       .  S
C202        C460   1.500       .  S
C202        O211   1.276       .  A
C202        O951   1.268   1_545  A
O203       Ni222   1.933       .  S
O203        C209   1.273       .  A
O204       Ni222   1.904       .  S
O204        C206   1.270       .  A
Ni205       O208   1.934       .  S
Ni205       O210   1.898       .  S
C206        C505   1.500       .  S
C206        O216   1.276       .  A
O207       Ni955   1.911       .  S
O207        C213   1.266       .  A
O208        C213   1.270       .  A
C209        C412   1.473       .  S
O210        C212   1.269       .  A
O211       Ni222   1.945       .  S
C212       C1900   1.494   1_455  S
C212        O218   1.281       .  A
C213        C388   1.493       .  S
H214        O215   0.966       .  S
O215       Ni223   1.915       .  S
O215       Ni222   1.918       .  S
O215       Ni949   1.907   1_545  S
O216       Ni949   1.950   1_545  S
Ni217       O221   1.910       .  S
Ni217       O219   1.905       .  S
Ni217       O948   1.946       .  S
Ni217       O947   1.909       .  S
O218       Ni955   1.958       .  S
O219        C934   1.269       .  A
C220        C481   1.479       .  S
C220        O221   1.268       .  A
Ni223       O939   1.917   1_545  S
Ni223       O950   1.953   1_545  S
Ni223       O933   1.908   1_545  S
C225        N226   1.359       .  A
C225        N230   1.358       .  A
C225        C361   1.495       .  S
N226        C227   1.358       .  A
C227        N228   1.362       .  A
C227       C1707   1.471       .  S
N228        C229   1.363       .  A
C229        N230   1.356       .  A
C229        C349   1.492       .  S
C231        N232   1.356       .  A
C231        N236   1.358       .  A
C231        C337   1.481       .  S
N232        C233   1.359       .  A
C233        N234   1.360       .  A
C233        C328   1.489       .  S
N234        C235   1.360       .  A
C235        N236   1.360       .  A
C235        C979   1.468       .  S
C237        N238   1.361       .  A
C237        N242   1.358       .  A
C237        C304   1.490       .  S
N238        C239   1.358       .  A
C239        N240   1.357       .  A
C239        C245   1.466       .  S
N240        C241   1.361       .  A
C241        N242   1.358       .  A
C241        C316   1.487       .  S
C243        N244   1.357       .  A
C243        N248   1.360       .  A
C243       C1691   1.469       .  S
N244        C245   1.357       .  A
C245        N246   1.359       .  A
N246        C247   1.361       .  A
C247        N248   1.361       .  A
C247        C967   1.471       .  S
O249       Ni255   1.922       .  S
O249        C270   1.271       .  A
O250       Ni273   1.915       .  S
O250        C259   1.270       .  A
O251       Ni255   1.910       .  S
O251       Ni273   1.918       .  S
O251       Ni267   1.924       .  S
O251        H274   0.966       .  S
C252        C661   1.474       .  S
C252        O269   1.277       .  A
C252        O261   1.276       .  A
O253       Ni272   1.921       .  S
O253        C259   1.269       .  A
O254       Ni272   1.915       .  S
O254        C256   1.270       .  A
Ni255       O258   1.920       .  S
Ni255       O260   1.897       .  S
C256        C712   1.492       .  S
C256        O266   1.270       .  A
O257       Ni273   1.915       .  S
O257        C263   1.271       .  A
O258        C263   1.272       .  A
C259        C313   1.483       .  S
O260        C262   1.267       .  A
O261       Ni272   1.919       .  S
C262        C352   1.497       .  S
C262        O268   1.279       .  A
C263        C325   1.487       .  S
H264        O265   0.967       .  S
O265       Ni273   1.909       .  S
O265       Ni267   1.899       .  S
O265       Ni272   1.906       .  S
O266       Ni267   1.926       .  S
Ni267       O271   1.903       .  S
Ni267       O269   1.925       .  S
O268       Ni273   1.948       .  S
C270        C688   1.492       .  S
C270        O271   1.266       .  A
O275       Ni281   1.927       .  S
O275        C296   1.271       .  A
O276       Ni299   1.919       .  S
O276       C1749   1.271       .  A
O277       Ni281   1.922       .  S
O277       Ni299   1.916       .  S
O277       Ni293   1.929       .  S
O277        H300   0.971       .  S
C278        C424   1.482       .  S
C278        O295   1.270       .  A
C278        O287   1.274       .  A
O279      Ni1762   1.927   1_455  S
O279        C285   1.271   1_455  A
O280       Ni298   1.900       .  S
O280        C282   1.269       .  A
Ni281       O284   1.932       .  S
Ni281       O286   1.910       .  S
C282       C1864   1.492       .  S
C282        O292   1.274       .  A
O283       Ni299   1.908       .  S
O283        C289   1.267       .  A
O284        C289   1.271       .  A
C285        C301   1.494   1_655  S
C285       O1740   1.270       .  A
O286        C288   1.274       .  A
O287       Ni298   1.927       .  S
C288        C340   1.486       .  S
C288        O294   1.280       .  A
C289        C364   1.482       .  S
H290        O291   0.966       .  S
O291       Ni299   1.906       .  S
O291       Ni293   1.907       .  S
O291       Ni298   1.913       .  S
O292       Ni293   1.943       .  S
Ni293       O297   1.901       .  S
Ni293       O295   1.912       .  S
O294       Ni299   1.943       .  S
C296        C373   1.477       .  S
C296        O297   1.265       .  A
Ni298      O1743   1.926       .  S
C301        C302   1.407       .  A
C301        C306   1.420       .  A
C302        C303   1.405       .  A
C302       H1771   1.085       .  S
C303        C304   1.417       .  A
C303        C310   1.444       .  S
C304        C305   1.403       .  A
C305        C306   1.399       .  A
C305        H308   1.085       .  S
C306        C309   1.445       .  S
H307       C1766   1.084       .  S
C309        N311   1.157       .  T
C310        N312   1.157       .  T
C313        C314   1.403       .  A
C313        C318   1.415       .  A
C314        C315   1.403       .  A
C314        H319   1.085       .  S
C315        C316   1.417       .  A
C315        C322   1.444       .  S
C316        C317   1.404       .  A
C317        C318   1.399       .  A
C317        H320   1.085       .  S
C318        C321   1.445       .  S
C321        N323   1.157       .  T
C322        N324   1.157       .  T
C325        C326   1.407       .  A
C325        C330   1.416       .  A
C326        C327   1.407       .  A
C326        H331   1.084       .  S
C327        C328   1.415       .  A
C327        C334   1.444       .  S
C328        C329   1.404       .  A
C329        C330   1.395       .  A
C329        H332   1.083       .  S
C330        C333   1.446       .  S
C333        N335   1.157       .  T
C334        N336   1.157       .  T
C337        C338   1.405       .  A
C337        C342   1.412       .  A
C338        C339   1.404       .  A
C338        H343   1.085       .  S
C339        C340   1.415       .  A
C339        C346   1.444       .  S
C340        C341   1.405       .  A
C341        C342   1.397       .  A
C341        H344   1.085       .  S
C342        C345   1.445       .  S
C345        N347   1.157       .  T
C346        N348   1.157       .  T
C349        C350   1.403       .  A
C349        C354   1.418       .  A
C350        C351   1.403       .  A
C350        H355   1.085       .  S
C351        C352   1.422       .  A
C351        C358   1.445       .  S
C352        C353   1.405       .  A
C353        C354   1.402       .  A
C353        H356   1.085       .  S
C354        C357   1.444       .  S
C357        N359   1.157       .  T
C358        N360   1.158       .  T
C361        C366   1.420       .  A
C361       C1094   1.410       .  A
C362        C363   1.396       .  A
C362       C1093   1.409       .  A
C362        H367   1.083       .  S
C363        C364   1.412       .  A
C363        C370   1.446       .  S
C364       C1097   1.404       .  A
C365        C366   1.401       .  A
C365       C1096   1.401       .  A
C365        H368   1.085       .  S
C366        C369   1.444       .  S
C369        N371   1.157       .  T
C370       N1836   1.158       .  T
N372       C1834   1.157       .  T
C373        C374   1.400       .  A
C373       C1110   1.409       .  A
C374       C1107   1.402       .  A
C374        H379   1.085       .  S
C375        C376   1.423       .  A
C375       C1106   1.405       .  A
C375       C1114   1.443       .  S
C376        C377   1.411       .  A
C377        C378   1.403       .  A
C377        H380   1.084       .  S
C378       C1105   1.410       .  A
C378        C381   1.444       .  S
C381        N383   1.157       .  T
C382       C1107   1.443       .  S
C382        N384   1.157       .  T
C385        C386   1.404       .  A
C385        C390   1.414       .  A
C386        C387   1.402       .  A
C386        H391   1.085       .  S
C387        C388   1.417       .  A
C387        C394   1.445       .  S
C388        C389   1.408       .  A
C389        C390   1.405       .  A
C389       H1124   1.085       .  S
C390        C393   1.444       .  S
H392       C1121   1.084   1_545  S
C393       N1127   1.157       .  T
C394        N396   1.157       .  T
N395       C1125   1.157       .  T
C397        C398   1.406       .  A
C397        C402   1.416       .  A
C398        C399   1.405       .  A
C398        H403   1.085       .  S
C399        C400   1.419       .  A
C399        C406   1.444   1_455  S
C400       C1746   1.497   1_455  S
C400        C401   1.407       .  A
C401        C402   1.398       .  A
C401        H404   1.085       .  S
C402        C405   1.445       .  S
C405        N407   1.157       .  T
C406       N1872   1.157       .  T
N408       C1870   1.158       .  T
C409        C410   1.410       .  A
C409        C414   1.419       .  A
C410        C411   1.396       .  A
C410        H415   1.084       .  S
C411        C412   1.406       .  A
C411        C418   1.445       .  S
C412        C413   1.403       .  A
C413        C414   1.404       .  A
C413        H416   1.085       .  S
C414        C417   1.444       .  S
C417        N419   1.157       .  T
C418        N420   1.157       .  T
C421        C422   1.409       .  A
C421        C426   1.419       .  A
C422        C423   1.394       .  A
C422        H427   1.084       .  S
C423        C424   1.410       .  A
C423        C430   1.447       .  S
C424        C425   1.405       .  A
C425        C426   1.408       .  A
C425        H428   1.085       .  S
C426        C429   1.443       .  S
C429        N431   1.157       .  T
C430        N432   1.157       .  T
C433        C434   1.402       .  A
C433        C438   1.410       .  A
C434        C435   1.405       .  A
C434        H439   1.085       .  S
C435        C436   1.414       .  A
C435        C442   1.444       .  S
C436       C1676   1.482       .  S
C436        C437   1.403       .  A
C437        C438   1.398       .  A
C437       H1904   1.085       .  S
C438        C441   1.445       .  S
H440       C1901   1.084       .  S
C441        N443   1.157       .  T
C442        N444   1.157       .  T
C445        C446   1.406       .  A
C445       C1182   1.412       .  A
C446        C447   1.405       .  A
C446        H451   1.085       .  S
C447       C1180   1.418       .  A
C447        C454   1.444       .  S
C448        C449   1.403       .  A
C448       C1179   1.415       .  A
C449        C450   1.395       .  A
C449        H452   1.085   1_565  S
C450       C1177   1.418       .  A
C450        C453   1.445       .  S
C453        N455   1.157   1_565  T
C454        N456   1.157       .  T
C457       C1601   1.491       .  S
C457        C462   1.414       .  A
C457       C1922   1.405   1_545  A
C458        C459   1.401       .  A
C458       C1921   1.403   1_565  A
C458        H463   1.084       .  S
C459       C1924   1.418   1_565  A
C459       C1198   1.445       .  S
C460        C461   1.407       .  A
C460       C1923   1.420   1_445  A
C461        C462   1.402   1_455  A
C461        H464   1.084       .  S
C462        C465   1.445   1_655  S
C465        N467   1.157       .  T
C466       C1191   1.445       .  S
C466        N468   1.157       .  T
C469        C470   1.405       .  A
C469        C474   1.412       .  A
C470        C471   1.401       .  A
C470        H475   1.085       .  S
C471        C472   1.417       .  A
C471        C478   1.445       .  S
C472        C473   1.407       .  A
C473        C474   1.399       .  A
C473        H476   1.085       .  S
C474        C477   1.445       .  S
C477        N479   1.157   1_455  T
C478        N480   1.157       .  T
C481        C482   1.406       .  A
C481        C486   1.414       .  A
C482        C483   1.406       .  A
C482        H487   1.084       .  S
C483        C484   1.411       .  A
C483        C490   1.443   1_455  S
C484        C485   1.400       .  A
C485        C486   1.396       .  A
C485        H488   1.085       .  S
C486        C489   1.445       .  S
C489        N491   1.157       .  T
C490       N1956   1.157       .  T
N492       C1954   1.158       .  T
C493        C494   1.403       .  A
C493        C498   1.410       .  A
C494        C495   1.406       .  A
C494        H499   1.085       .  S
C495        C496   1.421       .  A
C495        C502   1.444       .  S
C496        C497   1.410       .  A
C497        C498   1.396       .  A
C497        H500   1.084       .  S
C498        C501   1.446       .  S
C501        N503   1.157       .  T
C502        N504   1.158       .  T
C505        C506   1.411       .  A
C505        C510   1.422       .  A
C506        C507   1.398       .  A
C506        H511   1.084       .  S
C507        C508   1.406       .  A
C507        C514   1.445       .  S
C508        C509   1.400       .  A
C509        C510   1.406       .  A
C509        H512   1.085       .  S
C510        C513   1.443       .  S
C513        N515   1.157   1_545  T
C514        N516   1.157       .  T
C517        C518   1.407       .  A
C517        C522   1.418       .  A
C518        C519   1.392       .  A
C518        H523   1.085       .  S
C519        C520   1.412       .  A
C519        C526   1.446       .  S
C520        C521   1.405       .  A
C521        C522   1.403       .  A
C521        H524   1.085       .  S
C522        C525   1.445       .  S
C525        N527   1.158       .  T
C526        N528   1.157       .  T
C529        C530   1.405       .  A
C529       C1998   1.411   1_455  A
C530        C531   1.403   1_455  A
C530        H535   1.085       .  S
C531       C1996   1.411       .  A
C531        C538   1.444       .  S
C532        C533   1.403       .  A
C532       C1995   1.411       .  A
C533        C534   1.401       .  A
C533        H536   1.085       .  S
C534       C1993   1.411       .  A
C534        C537   1.444       .  S
C537        N539   1.157       .  T
C538        N540   1.157   1_655  T
C541        C542   1.406       .  A
C541        C546   1.414       .  A
C542        C543   1.400       .  A
C542        H547   1.085       .  S
C543        C544   1.415       .  A
C543        C550   1.445       .  S
C544        C545   1.407       .  A
C545        C546   1.402       .  A
C545        H548   1.085       .  S
C546        C549   1.444       .  S
C549        N551   1.157       .  T
C550        N552   1.157       .  T
C553        C554   1.409       .  A
C553        C558   1.423       .  A
C554        C555   1.406       .  A
C554        H559   1.084       .  S
C555        C556   1.411       .  A
C555        C562   1.443       .  S
C556        C557   1.400       .  A
C557        C558   1.398       .  A
C557        H560   1.086       .  S
C558        C561   1.446       .  S
C561        N563   1.158       .  T
C562        N564   1.157       .  T
C565        C566   1.406       .  A
C565        C570   1.418       .  A
C566        C567   1.396       .  A
C566        H571   1.085       .  S
C567        C568   1.414       .  A
C567        C574   1.446       .  S
C568        C569   1.404       .  A
C569        C570   1.403       .  A
C569        H572   1.083       .  S
C570        C573   1.444       .  S
C573        N575   1.157       .  T
C574        N576   1.158       .  T
C577        C578   1.409       .  A
C577        C582   1.419       .  A
C578        C579   1.405       .  A
C578        H583   1.085       .  S
C579        C580   1.413       .  A
C579        C586   1.443       .  S
C580        C581   1.403       .  A
C581        C582   1.397       .  A
C581        H584   1.085       .  S
C582        C585   1.446       .  S
C585        N587   1.158       .  T
C586        N588   1.157       .  T
C589        C590   1.406       .  A
C589        C594   1.414       .  A
C590        C591   1.406       .  A
C590        H595   1.085       .  S
C591        C592   1.418       .  A
C591        C598   1.444   1_455  S
C592        C593   1.408       .  A
C593        C594   1.400       .  A
C593        H596   1.085       .  S
C594        C597   1.445       .  S
C597        N599   1.157       .  T
C598        N600   1.158       .  T
C601        C602   1.402       .  A
C601        C606   1.415       .  A
C602        C603   1.400       .  A
C602        H607   1.085       .  S
C603        C604   1.419       .  A
C603        C610   1.445       .  S
C604        C605   1.407       .  A
C605        C606   1.409       .  A
C605        H608   1.084       .  S
C606        C609   1.444       .  S
C609        N611   1.157       .  T
C610       N1344   1.157       .  T
N612       C1342   1.157       .  T
C613        C614   1.406       .  A
C613        C618   1.417       .  A
C614        C615   1.394       .  A
C614        H619   1.085       .  S
C615        C616   1.410       .  A
C615        C622   1.446       .  S
C616        C617   1.406       .  A
C617        C618   1.409       .  A
C617        H620   1.085       .  S
C618        C621   1.444       .  S
C621        N623   1.158       .  T
C622        N624   1.157       .  T
C625        C626   1.401       .  A
C625        C630   1.410       .  A
C626        C627   1.396       .  A
C626        H631   1.086       .  S
C627        C628   1.420       .  A
C627        C634   1.445       .  S
C628        C629   1.410       .  A
C629        C630   1.407       .  A
C629        H632   1.084       .  S
C630        C633   1.443       .  S
C633        N635   1.157       .  T
C634        N636   1.157       .  T
C637        C638   1.406   1_545  A
C637        C642   1.416       .  A
C638        C639   1.393       .  A
C638        H643   1.085       .  S
C639        C640   1.420       .  A
C639       C1378   1.446       .  S
C640        C759   1.498       .  S
C640        C641   1.410   1_565  A
C641        C642   1.407       .  A
C641        H644   1.082       .  S
C642        C645   1.444       .  S
C645        N647   1.158       .  T
C646       C1371   1.445       .  S
C646        N648   1.157       .  T
C649       C1534   1.493       .  S
C649        C654   1.416       .  A
C649       C1382   1.404       .  A
C650        C651   1.406       .  A
C650       C1381   1.404       .  A
C650        H655   1.085       .  S
C651       C1384   1.420       .  A
C651        C658   1.443       .  S
C652        C653   1.407       .  A
C652       C1383   1.421       .  A
C653        C654   1.402       .  A
C653        H656   1.084       .  S
C654        C657   1.445       .  S
C657        N659   1.157       .  T
C658        N660   1.157       .  T
C661        C662   1.401       .  A
C661        C666   1.411       .  A
C662        C663   1.401       .  A
C662        H667   1.084       .  S
C663        C664   1.412       .  A
C663        C670   1.443       .  S
C664        C747   1.477       .  S
C664        C665   1.403       .  A
C665        C666   1.401       .  A
C665       H1400   1.085       .  S
C666        C669   1.444       .  S
H668       C1397   1.085       .  S
C669        N671   1.157       .  T
C670        N672   1.157       .  T
C673        C678   1.417       .  A
C673       C1406   1.404       .  A
C674        C675   1.406       .  A
C674       C1405   1.409       .  A
C674        H679   1.084       .  S
C675       C1408   1.413       .  A
C675        C682   1.444       .  S
C676        C677   1.403       .  A
C676       C1407   1.416       .  A
C677        C678   1.397       .  A
C677        H680   1.085       .  S
C678        C681   1.445       .  S
C681        N683   1.157   1_554  T
C682        N684   1.157       .  T
C685        C686   1.403       .  A
C685        C690   1.407       .  A
C686        C687   1.405       .  A
C686        H691   1.085       .  S
C687        C688   1.420       .  A
C687        C694   1.444       .  S
C688        C689   1.409       .  A
C689        C690   1.393       .  A
C689        H692   1.084       .  S
C690        C693   1.446       .  S
C693        N695   1.157       .  T
C694        N696   1.157       .  T
C697        C698   1.401       .  A
C697        C702   1.412       .  A
C698       C2163   1.398       .  A
C698       H2167   1.085       .  S
C699        C700   1.414       .  A
C699       C2162   1.401       .  A
C699        C706   1.445       .  S
C700       C2165   1.404       .  A
C701        C702   1.404       .  A
C701       C2164   1.404       .  A
C701        H704   1.085       .  S
C702        C705   1.444       .  S
H703       C2162   1.085       .  S
C705        N707   1.157       .  T
C706        N708   1.157       .  T
C709        C710   1.408       .  A
C709        C714   1.417       .  A
C710        C711   1.402       .  A
C710        H715   1.085       .  S
C711        C712   1.414       .  A
C711        C718   1.445       .  S
C712        C713   1.407       .  A
C713        C714   1.406       .  A
C713        H716   1.085       .  S
C714        C717   1.443       .  S
C717        N719   1.157       .  T
C718        N720   1.157       .  T
C721        C722   1.404       .  A
C721        C726   1.417       .  A
C722        C723   1.404       .  A
C722        H727   1.083       .  S
C723        C724   1.419       .  A
C723        C730   1.444       .  S
C724        C725   1.404       .  A
C725        C726   1.398       .  A
C725        H728   1.085       .  S
C726        C729   1.446   1_455  S
C729        N731   1.158       .  T
C730       N1464   1.157       .  T
N732       C1462   1.157       .  T
C733        N734   1.363       .  A
C733        N738   1.363       .  A
C733       C1441   1.501       .  S
N734       C2199   1.358       .  A
C735       N2198   1.355       .  A
C735       N2200   1.353       .  A
C735        C753   1.465       .  S
N736       C2199   1.351       .  A
N736        C737   1.354       .  A
C737        N738   1.360       .  A
C737       C1453   1.485       .  S
C739        N740   1.362       .  A
C739        N744   1.363       .  A
C739       C1429   1.482       .  S
N740        C741   1.359       .  A
C741        N742   1.354       .  A
C741        C755   1.464       .  S
N742        C743   1.356       .  A
C743        N744   1.361       .  A
C743       C1417   1.489       .  S
C745        N750   1.358       .  A
C745       C1408   1.486       .  S
C747        N748   1.360       .  A
N748        C749   1.359       .  A
C749        N750   1.357       .  A
C749        C751   1.466       .  S
C751        N752   1.358       .  A
C751        N756   1.356       .  A
N752        C753   1.360       .  A
C753        N754   1.360       .  A
N754        C755   1.358       .  A
C755        N756   1.357       .  A
C757        N758   1.364       .  A
C757        N762   1.366       .  A
C757       C1384   1.500       .  S
N758        C759   1.363       .  A
C759        N760   1.355       .  A
N760        C761   1.349       .  A
C761        N762   1.359       .  A
C761        C771   1.468       .  S
C763        N764   1.355       .  A
C763        N768   1.356       .  A
C763       C1357   1.489       .  S
N764        C765   1.355       .  A
C765        N766   1.358       .  A
C765       C1345   1.494       .  S
N766        C767   1.360       .  A
C767        N768   1.358       .  A
C767        C769   1.454       .  S
C769        N770   1.356       .  A
C769        N774   1.356       .  A
N770        C771   1.355       .  A
C771        N772   1.363       .  A
N772        C773   1.362       .  A
C773        N774   1.355       .  A
C773        C777   1.469       .  S
C775        N776   1.361       .  A
C775        N780   1.360       .  A
C775       C1321   1.481       .  S
N776        C777   1.358       .  A
C777        N778   1.353       .  A
N778        C779   1.361       .  A
C779        N780   1.359       .  A
C779       C1333   1.494       .  S
O781      Ni1519   1.934       .  S
O781       C2266   1.275       .  A
O782       Ni805   1.920       .  S
O782        C791   1.268       .  A
O783       Ni787   1.910       .  S
O783       Ni805   1.918   1_556  S
O783        H806   0.966       .  S
C784       C1336   1.490       .  S
C784        O801   1.282       .  A
C784        O793   1.273       .  A
O785        C791   1.267       .  A
O786        C788   1.267       .  A
Ni787      O1513   1.936       .  S
Ni787       O790   1.939   1_556  S
C788       C1360   1.479       .  S
C788        O798   1.270       .  A
O789       Ni805   1.904       .  S
O789        C795   1.270       .  A
O790        C795   1.278       .  A
C791       C1405   1.495       .  S
O792        C794   1.267       .  A
O793       Ni804   1.904       .  S
C794       C1432   1.481       .  S
C794        O800   1.271       .  A
C795       C1456   1.491       .  S
H796        O797   0.966       .  S
O797       Ni799   1.904       .  S
O797       Ni804   1.899       .  S
Ni799       O803   1.912       .  S
Ni799       O801   1.939       .  S
C802       C2845   1.483   1_455  S
C802       O2245   1.273       .  A
C802        O803   1.272       .  A
C807        N808   1.361       .  A
C807        N812   1.364       .  A
C807       C1312   1.484       .  S
N808        C809   1.355       .  A
C809        N810   1.350       .  A
C809       C2291   1.461       .  S
N810        C811   1.354       .  A
C811        N812   1.362       .  A
C811       C1300   1.481       .  S
C813        N814   1.359       .  A
C813       C1285   1.484       .  S
C815        N816   1.358       .  A
C815        C825   1.465       .  S
N816        C817   1.354       .  A
C817        N818   1.353       .  A
C817       C1273   1.481       .  S
C819        N820   1.364       .  A
C819        N824   1.363       .  A
C819       C1261   1.488       .  S
N820        C821   1.362       .  A
C821        N822   1.355       .  A
C821       C1252   1.502       .  S
N822        C823   1.353       .  A
C823        N824   1.359       .  A
C823        C829   1.466       .  S
C825        N830   1.357       .  A
N826        C827   1.359       .  A
C827       C2273   1.461   1_455  S
N828        C829   1.360       .  A
C829        N830   1.357       .  A
O831      Ni2301   1.926   1_455  S
O831        C852   1.273   1_455  A
O832       Ni855   1.894       .  S
O832        C841   1.262       .  A
O833       Ni837   1.909       .  S
O833       Ni855   1.904       .  S
O833       Ni849   1.918       .  S
O833        H856   0.966       .  S
C834       C1369   1.489       .  S
C834        O851   1.281       .  A
C834        O843   1.276       .  A
O835       Ni854   1.926       .  S
O835        C841   1.268       .  A
O836       Ni854   1.903       .  S
O836        C838   1.267       .  A
Ni837      O2295   1.931       .  S
Ni837       O840   1.944       .  S
Ni837       O842   1.901       .  S
C838       C1348   1.468       .  S
C838        O848   1.268       .  A
O839       Ni855   1.890       .  S
O839        C845   1.266       .  A
O840        C845   1.279       .  A
C841       C1276   1.477       .  S
O842        C844   1.267       .  A
O843       Ni854   1.913       .  S
C844       C1264   1.474       .  S
C844        O850   1.272       .  A
C845       C1297   1.489       .  S
H846        O847   0.966       .  S
O847       Ni855   1.902       .  S
O847       Ni849   1.899       .  S
O847       Ni854   1.910       .  S
O848       Ni849   1.919       .  S
Ni849       O853   1.902       .  S
Ni849       O851   1.934       .  S
O850       Ni855   1.936       .  S
C852       C1324   1.493   1_655  S
C852       O2317   1.270       .  A
O853       C2316   1.269       .  A
C857        N858   1.358       .  A
C857        N862   1.353       .  A
C857       C1228   1.492       .  S
N858        C859   1.362       .  A
C859        N860   1.361       .  A
C859        C875   1.463       .  S
N860        C861   1.359       .  A
C861        N862   1.350       .  A
C861       C1240   1.469       .  S
C863        N864   1.361       .  A
C863        N868   1.358       .  A
C863       C1201   1.498       .  S
N864        C865   1.361       .  A
C865        N866   1.357   1_455  A
C865       C1216   1.476       .  S
N866        C867   1.354       .  A
C867        N868   1.355   1_655  A
C867       C2343   1.462       .  S
C869        N870   1.362       .  A
C869        N874   1.356       .  A
C869       C2653   1.484       .  S
N870        C871   1.363       .  A
C871        N872   1.362       .  A
C871       C1180   1.491       .  S
N872        C873   1.352       .  A
C873        N874   1.352       .  A
C873        C877   1.462       .  S
C875        N876   1.362       .  A
C875        N880   1.354       .  A
N876        C877   1.362       .  A
C877        N878   1.357       .  A
N878        C879   1.354       .  A
C879        N880   1.352       .  A
C879       C2331   1.456       .  S
O881       Ni887   1.934       .  S
O881        C902   1.273       .  A
O882       Ni905   1.910       .  S
O882        C891   1.269       .  A
O883       Ni887   1.915       .  S
O883       Ni905   1.913       .  S
O883       Ni899   1.912       .  S
O883        H906   0.966       .  S
C884       C1288   1.463       .  S
C884        O901   1.262       .  A
C884        O893   1.269       .  A
O885       Ni904   1.918       .  S
O885        C891   1.270       .  A
O886       Ni904   1.896       .  S
O886        C888   1.269       .  A
Ni887       O890   1.934       .  S
Ni887       O892   1.906       .  S
C888       C1309   1.490       .  S
C888        O898   1.280       .  A
O889       Ni905   1.905       .  S
O889        C895   1.266       .  A
O890        C895   1.273       .  A
C891       C1177   1.492       .  S
O892        C894   1.273       .  A
O893       Ni904   1.932       .  S
C894       C1204   1.492       .  S
C894        O900   1.278       .  A
C895       C1225   1.476       .  S
H896        O897   0.966       .  S
O897       Ni905   1.915       .  S
O897       Ni899   1.905       .  S
O897       Ni904   1.915       .  S
O898       Ni899   1.952       .  S
Ni899       O903   1.903       .  S
Ni899       O901   1.895       .  S
O900       Ni905   1.949       .  S
C902       C1249   1.488       .  S
C902        O903   1.266       .  A
C907        N908   1.357       .  A
C907        N912   1.349       .  A
C907       C1153   1.490       .  S
N908        C909   1.363       .  A
C909        N910   1.367       .  A
C909        C925   1.466       .  S
N910        C911   1.361       .  A
C911        N912   1.349       .  A
C911       C1165   1.479       .  S
C913        N914   1.360       .  A
C913        N918   1.361       .  A
C913       C1129   1.489       .  S
N914        C915   1.355       .  A
C915        N916   1.353       .  A
C915        C929   1.464       .  S
N916        C917   1.359       .  A
C917        N918   1.361       .  A
C917       C1141   1.489       .  S
C919        N920   1.360       .  A
C919        N924   1.360       .  A
C919       C1117   1.490       .  S
N920        C921   1.356       .  A
C921        N922   1.356       .  A
C921        C927   1.465       .  S
N922        C923   1.361       .  A
C923        N924   1.362       .  A
C923       C1108   1.497       .  S
C925        N926   1.359       .  A
C925        N930   1.357       .  A
N926        C927   1.361       .  A
C927        N928   1.359       .  A
N928        C929   1.357       .  A
C929        N930   1.356       .  A
O931       Ni937   1.916       .  S
O931        C952   1.269       .  A
O932       Ni955   1.899       .  S
O932        C941   1.265       .  A
O933       Ni937   1.914       .  S
O933       Ni949   1.924       .  S
O933        H956   0.965       .  S
C934       C1192   1.495       .  S
C934        O943   1.275       .  A
O935       Ni954   1.926       .  S
O935        C941   1.271       .  A
O936       Ni954   1.898       .  S
O936        C938   1.269       .  A
Ni937       O940   1.929       .  S
Ni937       O942   1.903       .  S
C938       C1237   1.494       .  S
C938        O948   1.276       .  A
O939        C945   1.268       .  A
O940        C945   1.269       .  A
C941       C1144   1.475       .  S
O942        C944   1.271       .  A
O943       Ni954   1.936       .  S
C944       C2632   1.495   1_455  S
C944        O950   1.279       .  A
C945       C1120   1.497       .  S
H946        O947   0.966       .  S
O947       Ni955   1.910       .  S
O947       Ni954   1.918       .  S
Ni949       O953   1.900       .  S
Ni949       O951   1.909       .  S
C952       C1213   1.469       .  S
C952        O953   1.265       .  A
C957        N958   1.361       .  A
C957        N962   1.358       .  A
C957       C1093   1.496       .  S
N958        C959   1.360       .  A
C959        N960   1.360   1_545  A
C959       C2439   1.469       .  S
N960        C961   1.359       .  A
C961        N962   1.354   1_565  A
C961       C1081   1.485       .  S
C963        N964   1.360       .  A
C963        N968   1.360       .  A
C963       C1069   1.490       .  S
N964        C965   1.362       .  A
C965        N966   1.360       .  A
C965       C1060   1.500       .  S
N966        C967   1.358       .  A
C967        N968   1.359       .  A
C969        N970   1.361       .  A
C969        N974   1.358       .  A
C969       C1036   1.483       .  S
N970        C971   1.355       .  A
C971        N972   1.355       .  A
C971        C977   1.464       .  S
N972        C973   1.360       .  A
C973        N974   1.358       .  A
C973       C1048   1.481       .  S
C975        N976   1.359   1_545  A
C975        N980   1.360       .  A
C975       C2423   1.468       .  S
N976        C977   1.358       .  A
C977        N978   1.358   1_565  A
N978        C979   1.359       .  A
C979        N980   1.359       .  A
O981       Ni987   1.927       .  S
O981       C1002   1.272       .  A
O982      Ni1005   1.909       .  S
O982        C991   1.268       .  A
O983       Ni987   1.905       .  S
O983      Ni1005   1.908       .  S
O983       Ni999   1.918       .  S
O983       H1006   0.966       .  S
C984       C1393   1.466       .  S
C984       O1001   1.277       .  A
C984        O993   1.274       .  A
O985      Ni1004   1.921       .  S
O985        C991   1.269       .  A
O986      Ni1004   1.913       .  S
O986        C988   1.269       .  A
Ni987       O990   1.931       .  S
Ni987       O992   1.893       .  S
C988       C1444   1.496       .  S
C988        O998   1.272       .  A
O989      Ni1005   1.911       .  S
O989        C995   1.272       .  A
O990        C995   1.276       .  A
C991       C1045   1.480       .  S
O992        C994   1.265       .  A
O993      Ni1004   1.913       .  S
C994       C1084   1.488       .  S
C994       O1000   1.276       .  A
C995       C1057   1.479       .  S
H996        O997   0.967       .  S
O997      Ni1005   1.908       .  S
O997       Ni999   1.900       .  S
O997      Ni1004   1.905       .  S
O998       Ni999   1.922       .  S
Ni999      O1003   1.916       .  S
Ni999      O1001   1.923       .  S
O1000     Ni1005   1.938       .  S
C1002      C1420   1.490       .  S
C1002      O1003   1.270       .  A
O1007     Ni1013   1.934       .  S
O1007      C1028   1.273       .  A
O1008     Ni1031   1.910       .  S
O1008      C2481   1.268       .  A
O1009     Ni1013   1.922       .  S
O1009     Ni1031   1.913       .  S
O1009     Ni1025   1.918       .  S
O1009      H1032   0.971       .  S
C1010      C1156   1.469       .  S
C1010      O1027   1.264       .  A
C1010      O1019   1.274       .  A
O1011     Ni2494   1.919   1_455  S
O1011      C1017   1.269   1_455  A
O1012     Ni1030   1.910       .  S
O1012      C1014   1.272       .  A
Ni1013     O1016   1.937       .  S
Ni1013     O1018   1.914       .  S
C1014      C2596   1.503       .  S
C1014      O1024   1.278       .  A
O1015     Ni1031   1.896       .  S
O1015      C1021   1.264       .  A
O1016      C1021   1.273       .  A
C1017      C1033   1.487   1_655  S
C1017      O2472   1.269       .  A
O1018      C1020   1.274       .  A
O1019     Ni1030   1.931       .  S
C1020      C1072   1.495       .  S
C1020      O1026   1.279       .  A
C1021      C1096   1.474       .  S
H1022      O1023   0.966       .  S
O1023     Ni1031   1.902       .  S
O1023     Ni1025   1.907       .  S
O1023     Ni1030   1.915       .  S
O1024     Ni1025   1.953       .  S
Ni1025     O1029   1.905       .  S
Ni1025     O1027   1.896       .  S
O1026     Ni1031   1.947       .  S
C1028      C1105   1.487       .  S
C1028      O1029   1.266       .  A
Ni1030     O2475   1.931       .  S
C1033      C1034   1.406       .  A
C1033      C1038   1.419       .  A
C1034      C1035   1.403       .  A
C1034      H2503   1.085       .  S
C1035      C1036   1.415       .  A
C1035      C1042   1.444       .  S
C1036      C1037   1.402       .  A
C1037      C1038   1.395       .  A
C1037      H1040   1.085       .  S
C1038      C1041   1.446       .  S
H1039      C2498   1.085       .  S
C1041      N1043   1.157       .  T
C1042      N1044   1.157       .  T
C1045      C1046   1.405       .  A
C1045      C1050   1.414       .  A
C1046      C1047   1.402       .  A
C1046      H1051   1.085       .  S
C1047      C1048   1.415       .  A
C1047      C1054   1.444       .  S
C1048      C1049   1.403       .  A
C1049      C1050   1.395       .  A
C1049      H1052   1.085       .  S
C1050      C1053   1.445       .  S
C1053      N1055   1.157       .  T
C1054      N1056   1.157       .  T
C1057      C1058   1.401       .  A
C1057      C1062   1.410       .  A
C1058      C1059   1.404       .  A
C1058      H1063   1.085       .  S
C1059      C1060   1.422       .  A
C1059      C1066   1.444       .  S
C1060      C1061   1.410       .  A
C1061      C1062   1.400       .  A
C1061      H1064   1.083       .  S
C1062      C1065   1.446       .  S
C1065      N1067   1.158       .  T
C1066      N1068   1.157       .  T
C1069      C1070   1.406       .  A
C1069      C1074   1.414       .  A
C1070      C1071   1.405       .  A
C1070      H1075   1.085       .  S
C1071      C1072   1.416       .  A
C1071      C1078   1.444       .  S
C1072      C1073   1.408       .  A
C1073      C1074   1.401       .  A
C1073      H1076   1.085       .  S
C1074      C1077   1.445       .  S
C1077      N1079   1.157       .  T
C1078      N1080   1.157       .  T
C1081      C1082   1.403       .  A
C1081      C1086   1.416       .  A
C1082      C1083   1.401       .  A
C1082      H1087   1.085       .  S
C1083      C1084   1.419       .  A
C1083      C1090   1.445       .  S
C1084      C1085   1.404       .  A
C1085      C1086   1.399       .  A
C1085      H1088   1.085       .  S
C1086      C1089   1.444       .  S
C1089      N1091   1.157       .  T
C1090      N1092   1.157       .  T
C1093      C1098   1.418       .  A
C1094      C1095   1.397       .  A
C1094      H1099   1.083       .  S
C1095      C1096   1.408       .  A
C1095      C1102   1.446       .  S
C1097      C1098   1.404       .  A
C1097      H1100   1.085       .  S
C1098      C1101   1.443       .  S
C1101      N1103   1.157       .  T
C1102      N2568   1.157       .  T
N1104      C2566   1.157       .  T
C1105      C1106   1.402       .  A
C1106      H1111   1.085       .  S
C1107      C1108   1.421   1_545  A
C1108      C1109   1.411       .  A
C1109      C1110   1.401   1_565  A
C1109      H1112   1.084       .  S
C1110      C1113   1.445       .  S
C1113      N1115   1.157       .  T
C1114      N1116   1.157       .  T
C1117      C1118   1.403       .  A
C1117      C1122   1.415       .  A
C1118      C1119   1.399       .  A
C1118      H1123   1.085       .  S
C1119      C1120   1.420       .  A
C1119      C1126   1.445       .  S
C1120      C1121   1.409       .  A
C1121      C1122   1.407       .  A
C1122      C1125   1.444   1_565  S
C1126      N1128   1.157       .  T
C1129      C1130   1.407       .  A
C1129      C1134   1.414       .  A
C1130      C1131   1.404       .  A
C1130      H1135   1.085       .  S
C1131      C1132   1.418       .  A
C1131      C1138   1.444   1_455  S
C1132      C2478   1.494   1_455  S
C1132      C1133   1.407       .  A
C1133      C1134   1.397       .  A
C1133      H1136   1.085       .  S
C1134      C1137   1.445       .  S
C1137      N1139   1.157       .  T
C1138      N2604   1.158       .  T
N1140      C2602   1.157       .  T
C1141      C1142   1.408       .  A
C1141      C1146   1.418       .  A
C1142      C1143   1.395       .  A
C1142      H1147   1.084       .  S
C1143      C1144   1.409       .  A
C1143      C1150   1.446       .  S
C1144      C1145   1.403       .  A
C1145      C1146   1.403       .  A
C1145      H1148   1.085       .  S
C1146      C1149   1.444       .  S
C1149      N1151   1.157       .  T
C1150      N1152   1.157       .  T
C1153      C1154   1.411       .  A
C1153      C1158   1.417       .  A
C1154      C1155   1.390       .  A
C1154      H1159   1.084       .  S
C1155      C1156   1.405       .  A
C1155      C1162   1.446       .  S
C1156      C1157   1.404       .  A
C1157      C1158   1.405       .  A
C1157      H1160   1.085       .  S
C1158      C1161   1.444       .  S
C1161      N1163   1.158       .  T
C1162      N1164   1.157       .  T
C1165      C1166   1.401       .  A
C1165      C1170   1.408       .  A
C1166      C1167   1.392       .  A
C1166      H1171   1.086       .  S
C1167      C1168   1.419       .  A
C1167      C1174   1.446       .  S
C1168      C2408   1.495       .  S
C1168      C1169   1.413       .  A
C1169      C1170   1.409       .  A
C1169      H2636   1.084       .  S
C1170      C1173   1.443       .  S
H1172      C2633   1.084       .  S
C1173      N1175   1.157       .  T
C1174      N1176   1.158       .  T
C1177      C1178   1.408       .  A
C1178      C1179   1.406       .  A
C1178      H1183   1.085       .  S
C1179      C1186   1.444       .  S
C1180      C1181   1.406       .  A
C1181      C1182   1.393       .  A
C1181      H1184   1.084       .  S
C1182      C1185   1.445       .  S
C1185      N1187   1.157       .  T
C1186      N1188   1.157       .  T
C1189      C2333   1.486       .  S
C1189      C2654   1.404       .  A
C1189      C1194   1.414       .  A
C1190      C2653   1.403       .  A
C1190      C1191   1.402       .  A
C1190      H1195   1.083       .  S
C1191      C2656   1.421       .  A
C1192      C2655   1.418   1_455  A
C1192      C1193   1.409       .  A
C1193      C1194   1.400   1_455  A
C1193      H1196   1.085       .  S
C1194      C1197   1.446   1_655  S
C1197      N1199   1.158       .  T
C1198      N1200   1.158       .  T
C1201      C1202   1.409       .  A
C1201      C1206   1.420       .  A
C1202      C1203   1.403       .  A
C1202      H1207   1.084       .  S
C1203      C1204   1.416       .  A
C1203      C1210   1.444       .  S
C1204      C1205   1.404       .  A
C1205      C1206   1.399       .  A
C1205      H1208   1.085       .  S
C1206      C1209   1.445       .  S
C1209      N1211   1.158       .  T
C1210      N1212   1.157       .  T
C1213      C1214   1.401       .  A
C1213      C1218   1.410       .  A
C1214      C1215   1.402       .  A
C1214      H1219   1.085   1_455  S
C1215      C1216   1.414       .  A
C1215      C1222   1.444   1_455  S
C1216      C1217   1.403       .  A
C1217      C1218   1.397       .  A
C1217      H1220   1.085       .  S
C1218      C1221   1.445       .  S
C1221      N1223   1.157       .  T
C1222      N2688   1.157       .  T
N1224      C2686   1.158       .  T
C1225      C1226   1.405       .  A
C1225      C1230   1.408       .  A
C1226      C1227   1.407       .  A
C1226      H1231   1.085       .  S
C1227      C1228   1.418       .  A
C1227      C1234   1.444       .  S
C1228      C1229   1.409       .  A
C1229      C1230   1.392       .  A
C1229      H1232   1.084       .  S
C1230      C1233   1.446       .  S
C1233      N1235   1.157       .  T
C1234      N1236   1.158       .  T
C1237      C1238   1.410       .  A
C1237      C1242   1.421       .  A
C1238      C1239   1.396       .  A
C1238      H1243   1.084       .  S
C1239      C1240   1.408       .  A
C1239      C1246   1.446       .  S
C1240      C1241   1.399       .  A
C1241      C1242   1.403       .  A
C1241      H1244   1.085       .  S
C1242      C1245   1.443       .  S
C1245      N1247   1.157       .  T
C1246      N1248   1.157       .  T
C1249      C1250   1.401       .  A
C1249      C1254   1.414       .  A
C1250      C1251   1.400       .  A
C1250      H1255   1.085       .  S
C1251      C1252   1.423       .  A
C1251      C1258   1.445       .  S
C1252      C1253   1.410       .  A
C1253      C1254   1.406       .  A
C1253      H1256   1.084       .  S
C1254      C1257   1.444       .  S
C1257      N1259   1.157       .  T
C1258      N1260   1.158       .  T
C1261      C1262   1.407       .  A
C1261      C2730   1.414   1_455  A
C1262      C1263   1.405   1_455  A
C1262      H1267   1.085       .  S
C1263      C2728   1.411       .  A
C1263      C1270   1.444       .  S
C1264      C2727   1.411       .  A
C1264      C1265   1.403       .  A
C1265      C1266   1.399       .  A
C1265      H1268   1.085       .  S
C1266      C2725   1.411       .  A
C1266      C1269   1.444       .  S
C1269      N1271   1.157       .  T
C1270      N1272   1.157       .  T
C1273      C1274   1.405       .  A
C1273      C1278   1.414       .  A
C1274      C1275   1.394       .  A
C1274      H1279   1.085       .  S
C1275      C1276   1.412       .  A
C1275      C1282   1.446       .  S
C1276      C1277   1.405       .  A
C1277      C1278   1.401       .  A
C1277      H1280   1.085       .  S
C1278      C1281   1.444       .  S
C1281      N1283   1.157       .  T
C1282      N1284   1.157       .  T
C1285      C1286   1.408       .  A
C1285      C1290   1.418       .  A
C1286      C1287   1.399       .  A
C1286      H1291   1.084       .  S
C1287      C1288   1.406       .  A
C1287      C1294   1.445       .  S
C1288      C1289   1.398       .  A
C1289      C1290   1.397       .  A
C1289      H1292   1.085       .  S
C1290      C1293   1.445       .  S
C1293      N1295   1.157       .  T
C1294      N1296   1.157       .  T
C1297      C1298   1.405       .  A
C1297      C1302   1.420       .  A
C1298      C1299   1.396       .  A
C1298      H1303   1.085       .  S
C1299      C1300   1.414       .  A
C1299      C1306   1.446       .  S
C1300      C1301   1.402       .  A
C1301      C1302   1.403       .  A
C1301      H1304   1.084       .  S
C1302      C1305   1.445       .  S
C1305      N1307   1.158       .  T
C1306      N1308   1.157       .  T
C1309      C1310   1.408       .  A
C1309      C1314   1.418       .  A
C1310      C1311   1.402       .  A
C1310      H1315   1.085       .  S
C1311      C1312   1.412       .  A
C1311      C1318   1.443       .  S
C1312      C1313   1.404       .  A
C1313      C1314   1.399       .  A
C1313      H1316   1.085       .  S
C1314      C1317   1.445       .  S
C1317      N1319   1.158       .  T
C1318      N1320   1.157       .  T
C1321      C1322   1.405       .  A
C1321      C1326   1.410       .  A
C1322      C1323   1.405       .  A
C1322      H1327   1.085       .  S
C1323      C1324   1.417       .  A
C1323      C1330   1.444   1_455  S
C1324      C1325   1.409       .  A
C1325      C1326   1.397       .  A
C1325      H1328   1.085       .  S
C1326      C1329   1.445       .  S
C1329      N1331   1.157       .  T
C1330      N1332   1.157       .  T
C1333      C1334   1.403       .  A
C1333      C1338   1.420       .  A
C1334      C1335   1.392       .  A
C1334      H1339   1.085       .  S
C1335      C1336   1.419       .  A
C1335      C1342   1.446       .  S
C1336      C1337   1.406       .  A
C1337      C1338   1.407       .  A
C1337      H1340   1.085       .  S
C1338      C1341   1.443       .  S
C1341      N1343   1.157       .  T
C1345      C1346   1.411       .  A
C1345      C1350   1.421       .  A
C1346      C1347   1.393       .  A
C1346      H1351   1.084       .  S
C1347      C1348   1.404       .  A
C1347      C1354   1.446       .  S
C1348      C1349   1.401       .  A
C1349      C1350   1.405       .  A
C1349      H1352   1.085       .  S
C1350      C1353   1.444       .  S
C1353      N1355   1.158       .  T
C1354      N1356   1.157       .  T
C1357      C1358   1.406       .  A
C1357      C1362   1.418       .  A
C1358      C1359   1.392       .  A
C1358      H1363   1.084       .  S
C1359      C1360   1.410       .  A
C1359      C1366   1.445       .  S
C1360      C1361   1.406       .  A
C1361      C1362   1.407       .  A
C1361      H1364   1.085       .  S
C1362      C1365   1.444       .  S
C1365      N1367   1.158       .  T
C1366      N1368   1.157       .  T
C1369      C1370   1.408       .  A
C1369      C1374   1.415       .  A
C1370      C1371   1.400       .  A
C1370      H1375   1.085       .  S
C1371      C1372   1.412       .  A
C1372      C1373   1.406       .  A
C1373      C1374   1.404       .  A
C1373      H1376   1.085       .  S
C1374      C1377   1.444       .  S
C1377      N1379   1.157       .  T
C1378      N1380   1.158       .  T
C1381      C2266   1.492       .  S
C1381      C1386   1.416       .  A
C1382      C1383   1.407       .  A
C1382      H1387   1.085       .  S
C1383      C1390   1.444       .  S
C1384      C1385   1.407       .  A
C1385      C1386   1.401       .  A
C1385      H1388   1.084       .  S
C1386      C1389   1.445       .  S
C1389      N1391   1.157       .  T
C1390      N1392   1.157       .  T
C1393      C1394   1.399       .  A
C1393      C1398   1.409       .  A
C1394      C1395   1.398       .  A
C1394      H1399   1.085       .  S
C1395      C1396   1.414   1_565  A
C1395      C1402   1.444       .  S
C1396      C1397   1.404       .  A
C1397      C1398   1.399   1_545  A
C1398      C1401   1.444   1_565  S
C1401      N1403   1.157       .  T
C1402      N1404   1.157       .  T
C1405      C1410   1.420       .  A
C1406      C1407   1.399       .  A
C1406      H1411   1.085       .  S
C1407      C1414   1.445       .  S
C1408      C1409   1.401       .  A
C1409      C1410   1.399       .  A
C1409      H1412   1.085       .  S
C1410      C1413   1.445       .  S
C1413      N1415   1.157   1_554  T
C1414      N1416   1.157       .  T
C1417      C1418   1.408       .  A
C1417      C1422   1.415       .  A
C1418      C1419   1.409       .  A
C1418      H1423   1.084       .  S
C1419      C1420   1.415       .  A
C1419      C1426   1.443       .  S
C1420      C1421   1.405       .  A
C1421      C1422   1.395       .  A
C1421      H1424   1.085       .  S
C1422      C1425   1.445       .  S
C1425      N1427   1.157       .  T
C1426      N1428   1.157       .  T
C1429      C1430   1.403       .  A
C1429      C1434   1.413       .  A
C1430      C2895   1.403       .  A
C1430      H2899   1.085       .  S
C1431      C2894   1.398       .  A
C1431      C1432   1.415       .  A
C1431      C1438   1.444       .  S
C1432      C2897   1.407   1_455  A
C1433      C2896   1.404       .  A
C1433      C1434   1.403       .  A
C1433      H1436   1.085       .  S
C1434      C1437   1.444       .  S
H1435      C2894   1.085       .  S
C1437      N1439   1.157       .  T
C1438      N1440   1.157       .  T
C1441      C1442   1.410       .  A
C1441      C1446   1.419       .  A
C1442      C1443   1.404       .  A
C1442      H1447   1.084       .  S
C1443      C1444   1.418       .  A
C1443      C1450   1.446       .  S
C1444      C1445   1.405       .  A
C1445      C1446   1.400       .  A
C1445      H1448   1.085       .  S
C1446      C1449   1.443       .  S
C1449      N1451   1.157       .  T
C1450      N1452   1.158       .  T
C1453      C1454   1.405       .  A
C1453      C1458   1.413       .  A
C1454      C1455   1.404       .  A
C1454      H1459   1.084       .  S
C1455      C1456   1.418       .  A
C1455      C1462   1.444       .  S
C1456      C1457   1.407       .  A
C1457      C1458   1.398       .  A
C1457      H1460   1.085       .  S
C1458      C1461   1.445   1_455  S
C1461      N1463   1.157       .  T
C1465      N1466   1.362       .  A
C1465      N1470   1.364       .  A
C1465      C2173   1.497       .  S
C1467      C1485   1.463   1_455  S
N1468      C1469   1.355       .  A
C1469      N1470   1.364       .  A
C1469      C2185   1.488       .  S
C1471      N1472   1.362       .  A
C1471      N1476   1.361       .  A
C1471      C2161   1.482       .  S
N1472      C1473   1.360       .  A
C1473      N1474   1.355       .  A
C1473      C1487   1.463       .  S
N1474      C1475   1.356       .  A
C1475      N1476   1.359       .  A
C1475      C2149   1.478       .  S
C1477      N2210   1.357       .  A
C1477      N1482   1.357       .  A
C1477      C2140   1.482       .  S
N1478      C2209   1.358       .  A
N1478      C2211   1.359       .  A
C1479      N2210   1.358       .  A
C1479      N1480   1.362       .  A
C1479      C2860   1.487       .  S
N1480      C1481   1.361       .  A
C1481      N1482   1.356       .  A
C1481      C1483   1.467       .  S
C1483      N1484   1.355       .  A
C1483      N1488   1.358       .  A
N1484      C1485   1.359       .  A
C1485      N1486   1.359       .  A
N1486      C1487   1.359       .  A
C1487      N1488   1.358       .  A
C1489      N1490   1.367       .  A
C1489      N1494   1.363       .  A
C1489      C2116   1.501       .  S
N1490      C1491   1.367       .  A
C1491      N1492   1.354       .  A
C1491      C2836   1.497       .  S
N1492      C1493   1.347       .  A
C1493      N1494   1.356       .  A
C1493      C1503   1.464       .  S
C1495      N1496   1.355       .  A
C1495      N1500   1.357       .  A
C1495      C2089   1.477       .  S
N1496      C1497   1.357       .  A
C1497      N1498   1.356       .  A
C1497      C2077   1.480       .  S
N1498      C1499   1.359       .  A
C1499      N1500   1.359       .  A
C1499      C1501   1.454       .  S
C1501      N1502   1.353       .  A
C1501      N1506   1.357       .  A
N1502      C1503   1.353       .  A
C1503      N1504   1.363       .  A
N1504      C1505   1.363       .  A
C1505      N1506   1.358       .  A
C1505      C1509   1.472       .  S
C1507      N1508   1.361       .  A
C1507      N1512   1.358       .  A
C1507      C2053   1.482       .  S
N1508      C1509   1.359       .  A
C1509      N1510   1.358       .  A
N1510      C1511   1.363       .  A
C1511      N1512   1.357       .  A
C1511      C2065   1.492       .  S
O1514     Ni1537   1.908       .  S
O1514      C1523   1.266       .  A
O1515     Ni1519   1.905   1_545  S
O1515     Ni1537   1.908   1_556  S
O1515     Ni2263   1.915   1_545  S
O1515      H1538   0.966       .  S
C1516      C2068   1.485       .  S
C1516      O1533   1.280       .  A
C1516      O1525   1.273       .  A
O1517     Ni2268   1.918   1_544  S
O1517      C1523   1.266       .  A
O1518     Ni2268   1.898   1_545  S
O1518      C1520   1.266       .  A
Ni1519     O1522   1.941   1_566  S
Ni1519     O2256   1.910   1_556  S
C1520      C2092   1.499       .  S
C1520      O1530   1.276       .  A
O1521     Ni1537   1.904       .  S
O1521      C1527   1.272       .  A
O1522      C1527   1.281       .  A
C1523      C2137   1.483       .  S
O1524     Ni2251   1.906   1_554  S
O1524      C1526   1.267       .  A
O1525     Ni1536   1.906       .  S
C1526      C2164   1.477       .  S
C1526      O1532   1.272       .  A
C1527      C2188   1.495       .  S
H1528      O1529   0.966       .  S
O1529     Ni2269   1.906   1_556  S
O1529     Ni1531   1.914       .  S
O1529     Ni1536   1.907       .  S
O1530     Ni2263   1.942   1_545  S
Ni1531     O2262   1.935       .  S
Ni1531     O1535   1.919       .  S
Ni1531     O1533   1.935       .  S
Ni1531     O2247   1.915       .  S
O1532     Ni2269   1.932       .  S
C1534      O1535   1.273       .  A
Ni1536     O2249   1.924   1_556  S
Ni1536     O2250   1.896       .  S
Ni1537     O2264   1.934   1_545  S
Ni1537     O2261   1.909   1_544  S
C1539      N1540   1.362       .  A
C1539      N1544   1.364       .  A
C1539      C2044   1.490       .  S
N1540      C1541   1.355       .  A
C1541      N1542   1.351       .  A
N1542      C1543   1.354       .  A
C1543      N1544   1.363       .  A
C1543      C2032   1.480       .  S
C1545      N1546   1.360       .  A
C1545      N2282   1.355       .  A
C1545      C2017   1.486       .  S
N1546      C2279   1.359       .  A
C1547      N2278   1.362       .  A
C1547      N1548   1.359   1_565  A
C1547      C1557   1.467       .  S
N1548      C1549   1.357       .  A
C1549      N1550   1.353   1_545  A
C1549      C2005   1.485       .  S
N1550      C2277   1.354       .  A
C1551      N1552   1.361       .  A
C1551      N1556   1.360       .  A
C1551      C1993   1.480       .  S
N1552      C1553   1.361       .  A
C1553      N1554   1.357       .  A
C1553      C1984   1.495       .  S
N1554      C1555   1.354       .  A
C1555      N1556   1.358       .  A
C1555      C1561   1.462       .  S
C1557      N2290   1.356       .  A
C1557      N1562   1.358   1_565  A
N1558      C2289   1.357       .  A
N1558      C1559   1.359       .  A
C1559      N2292   1.358       .  A
N1560      C2291   1.357       .  A
N1560      C1561   1.357   1_565  A
C1561      N1562   1.358       .  A
O1563      C1584   1.271       .  A
O1564     Ni1587   1.901       .  S
O1564      C1573   1.263       .  A
O1565     Ni1569   1.912       .  S
O1565     Ni1587   1.907       .  S
O1565     Ni1581   1.912       .  S
O1565      H1588   0.966       .  S
C1566      C2101   1.489       .  S
C1566      O1583   1.277       .  A
C1566      O1575   1.276       .  A
O1567     Ni1586   1.928       .  S
O1567      C1573   1.268       .  A
O1568     Ni1586   1.895       .  S
O1568      C1570   1.267       .  A
Ni1569     O1572   1.947       .  S
Ni1569     O1574   1.909       .  S
C1570      C2080   1.483       .  S
C1570      O1580   1.272       .  A
O1571     Ni1587   1.897       .  S
O1571      C1577   1.269       .  A
O1572      C1577   1.280       .  A
C1573      C2008   1.480       .  S
O1574      C1576   1.267       .  A
O1575     Ni1586   1.916       .  S
C1576      C1996   1.477       .  S
C1576      O1582   1.271       .  A
C1577      C2029   1.488       .  S
H1578      O1579   0.966       .  S
O1579     Ni1587   1.907       .  S
O1579     Ni1581   1.912       .  S
O1579     Ni1586   1.912       .  S
O1580     Ni1581   1.929       .  S
Ni1581     O1585   1.907       .  S
Ni1581     O1583   1.924       .  S
O1582     Ni1587   1.932       .  S
C1584      C2056   1.489       .  S
C1589      N1590   1.358       .  A
C1589      N1594   1.355       .  A
C1589      C1960   1.494       .  S
N1590      C1591   1.360       .  A
C1591      N1592   1.360       .  A
C1591      C1607   1.463       .  S
N1592      C1593   1.358       .  A
C1593      N1594   1.352       .  A
C1593      C1972   1.470       .  S
C1595      N1596   1.367       .  A
C1595      N1600   1.362       .  A
C1595      C1933   1.496       .  S
N1596      C1597   1.365       .  A
C1597      N1598   1.354       .  A
C1597      C1948   1.497       .  S
N1598      C1599   1.349       .  A
C1599      N1600   1.355       .  A
C1601      N1602   1.364       .  A
C1601      N1606   1.359       .  A
N1602      C1603   1.365       .  A
C1603      N1604   1.362       .  A
C1603      C1912   1.495   1_545  S
N1604      C1605   1.356       .  A
C1605      N1606   1.354       .  A
C1605      C1609   1.468       .  S
C1607      N1608   1.360       .  A
C1607      N1612   1.357       .  A
N1608      C1609   1.359       .  A
C1609      N1610   1.359       .  A
N1610      C1611   1.359       .  A
C1611      N1612   1.356       .  A
O1613     Ni1619   1.923       .  S
O1613      C1634   1.271       .  A
O1614     Ni1637   1.912       .  S
O1614      C1623   1.270       .  A
O1615     Ni1619   1.913       .  S
O1615     Ni1637   1.914       .  S
O1615     Ni1631   1.911       .  S
O1615      H1638   0.966       .  S
C1616      C2020   1.472       .  S
C1616      O1633   1.264       .  A
C1616      O1625   1.271       .  A
O1617     Ni1636   1.926       .  S
O1617      C1623   1.271       .  A
O1618     Ni1636   1.897       .  S
O1618      C1620   1.269       .  A
Ni1619     O1622   1.924       .  S
Ni1619     O1624   1.900       .  S
C1620      C2041   1.493       .  S
C1620      O1630   1.280       .  A
O1621     Ni1637   1.906       .  S
O1621      C1627   1.266       .  A
O1622      C1627   1.271       .  A
C1623      C1909   1.499       .  S
O1624      C1626   1.271       .  A
O1625     Ni1636   1.939       .  S
C1626      C1936   1.496       .  S
C1626      O1632   1.279       .  A
C1627      C1957   1.474       .  S
H1628      O1629   0.966       .  S
O1629     Ni1637   1.919       .  S
O1629     Ni1631   1.910       .  S
O1629     Ni1636   1.918       .  S
O1630     Ni1631   1.952       .  S
Ni1631     O1635   1.910       .  S
Ni1631     O1633   1.899       .  S
O1632     Ni1637   1.953       .  S
C1634      C1981   1.492       .  S
C1634      O1635   1.268       .  A
C1639      N1640   1.358       .  A
C1639      N1644   1.356       .  A
C1639      C1885   1.498       .  S
N1640      C1641   1.361       .  A
C1641      N1642   1.364       .  A
C1641      C1657   1.468       .  S
N1642      C1643   1.362       .  A
C1643      N1644   1.356       .  A
C1643      C1897   1.482       .  S
C1645      N1646   1.359       .  A
C1645      N1650   1.361       .  A
C1645      C1861   1.490       .  S
N1646      C1647   1.356       .  A
C1647      N1648   1.355       .  A
C1647      C1661   1.465       .  S
N1648      C1649   1.360       .  A
C1649      N1650   1.361       .  A
C1649      C1873   1.488       .  S
C1651      N1652   1.356       .  A
C1651      N1656   1.358       .  A
C1651      C1849   1.478       .  S
N1652      C1653   1.355       .  A
C1653      N1654   1.356       .  A
C1653      C1659   1.463       .  S
N1654      C1655   1.363       .  A
C1655      N1656   1.360       .  A
C1655      C1840   1.496       .  S
C1657      N1658   1.361       .  A
C1657      N1662   1.359       .  A
N1658      C1659   1.361       .  A
C1659      N1660   1.357       .  A
N1660      C1661   1.355       .  A
C1661      N1662   1.357       .  A
O1663     Ni1669   1.928       .  S
O1663      C1684   1.271       .  A
O1664     Ni1687   1.910       .  S
O1664      C1673   1.269       .  A
O1665     Ni1669   1.923       .  S
O1665     Ni2419   1.915       .  S
O1665     Ni1681   1.912       .  S
O1665      H1688   0.965       .  S
C1666      C1924   1.484       .  S
C1666      O2415   1.267   1_545  A
C1666      O1675   1.277       .  A
O1667     Ni1686   1.925       .  S
O1667      C1673   1.271       .  A
O1668     Ni1686   1.907       .  S
O1668      C1670   1.266       .  A
Ni1669     O1672   1.938       .  S
Ni1669     O1674   1.908       .  S
C1670      C1969   1.475       .  S
C1670      O1680   1.269       .  A
O1671     Ni2419   1.900       .  S
O1671      C1677   1.268       .  A
O1672      C1677   1.273       .  A
C1673      C1876   1.486       .  S
O1674      C1676   1.270       .  A
O1675     Ni1686   1.935       .  S
C1676      O1682   1.276       .  A
C1677      C1852   1.488       .  S
H1678      O1679   0.966       .  S
O1679     Ni1687   1.909       .  S
O1679     Ni2413   1.912   1_545  S
O1679     Ni1686   1.915       .  S
O1680     Ni2413   1.926   1_545  S
Ni1681     O2412   1.939       .  S
Ni1681     O1685   1.903       .  S
Ni1681     O1683   1.892       .  S
Ni1681     O2411   1.912       .  S
O1682     Ni2419   1.943       .  S
O1683      C2398   1.265       .  A
C1684      C1945   1.477       .  S
C1684      O1685   1.264       .  A
Ni1687     O2403   1.918   1_545  S
Ni1687     O2414   1.934   1_545  S
Ni1687     O2397   1.921   1_545  S
C1689      N1690   1.360   1_655  A
C1689      N1694   1.357       .  A
C1689      C1825   1.492       .  S
N1690      C1691   1.360       .  A
C1691      N1692   1.362       .  A
N1692      C1693   1.360   1_455  A
C1693      N1694   1.353       .  A
C1693      C1813   1.485       .  S
C1695      N1696   1.356       .  A
C1695      N1700   1.360       .  A
C1695      C1801   1.484       .  S
N1696      C1697   1.359       .  A
C1697      N1698   1.359       .  A
C1697      C1792   1.486       .  S
N1698      C1699   1.358       .  A
C1699      N1700   1.361       .  A
C1699      C2443   1.468       .  S
C1701      N1702   1.363       .  A
C1701      N1706   1.361       .  A
C1701      C1768   1.492       .  S
N1702      C1703   1.359       .  A
C1703      N1704   1.357       .  A
C1703      C1709   1.470       .  S
N1704      C1705   1.361       .  A
C1705      N1706   1.360       .  A
C1705      C1780   1.489       .  S
C1707      N1708   1.359       .  A
C1707      N1712   1.360       .  A
N1708      C1709   1.359       .  A
C1709      N1710   1.360       .  A
N1710      C1711   1.361       .  A
C1711      N1712   1.360       .  A
C1711      C2431   1.473       .  S
O1713     Ni1719   1.927       .  S
O1713      C1734   1.271       .  A
O1714     Ni1737   1.921       .  S
O1714      C1723   1.272       .  A
O1715     Ni1719   1.902       .  S
O1715     Ni1737   1.913       .  S
O1715     Ni1731   1.911       .  S
O1715      H1738   0.966       .  S
C1716      C2125   1.474       .  S
C1716      O1733   1.276       .  A
C1716      O1725   1.277       .  A
O1717     Ni1736   1.925       .  S
O1717      C1723   1.271       .  A
O1718     Ni1736   1.914       .  S
O1718      C1720   1.269       .  A
Ni1719     O1722   1.913       .  S
Ni1719     O1724   1.901       .  S
C1720      C2176   1.497       .  S
C1720      O1730   1.271       .  A
O1721     Ni1737   1.922       .  S
O1721      C1727   1.277       .  A
O1722      C1727   1.275       .  A
C1723      C1777   1.490       .  S
O1724      C1726   1.268       .  A
O1725     Ni1736   1.923       .  S
C1726      C1816   1.488       .  S
C1726      O1732   1.275       .  A
C1727      C1789   1.483       .  S
H1728      O1729   0.967       .  S
O1729     Ni1737   1.914       .  S
O1729     Ni1731   1.906       .  S
O1729     Ni1736   1.904       .  S
O1730     Ni1731   1.924       .  S
Ni1731     O1735   1.911       .  S
Ni1731     O1733   1.922       .  S
O1732     Ni1737   1.936       .  S
C1734      C2152   1.494       .  S
C1734      O1735   1.267       .  A
O1739     Ni1745   1.927       .  S
O1739      C1760   1.270       .  A
O1740     Ni1763   1.912       .  S
O1741     Ni1745   1.922       .  S
O1741     Ni1763   1.913       .  S
O1741     Ni1757   1.927       .  S
O1741      H1764   0.971       .  S
C1742      C1888   1.480       .  S
C1742      O1759   1.268       .  A
C1742      O1751   1.274       .  A
O1743      C1749   1.270       .  A
O1744     Ni1762   1.901   1_455  S
O1744      C1746   1.270   1_455  A
Ni1745     O1748   1.933       .  S
Ni1745     O1750   1.906       .  S
C1746      O1756   1.275       .  A
O1747     Ni1763   1.909       .  S
O1747      C1753   1.267       .  A
O1748      C1753   1.271       .  A
C1749      C1765   1.497       .  S
O1750      C1752   1.273       .  A
O1751     Ni1762   1.935       .  S
C1752      C1804   1.488       .  S
C1752      O1758   1.281       .  A
C1753      C1828   1.478       .  S
H1754      O1755   0.966       .  S
O1755     Ni1763   1.910       .  S
O1755     Ni1757   1.903       .  S
O1755     Ni1762   1.916       .  S
O1756     Ni1757   1.946       .  S
Ni1757     O1761   1.895       .  S
Ni1757     O1759   1.909       .  S
O1758     Ni1763   1.952       .  S
C1760      C1837   1.471       .  S
C1760      O1761   1.263       .  A
C1765      C1766   1.407       .  A
C1765      C1770   1.421       .  A
C1766      C1767   1.408       .  A
C1767      C1768   1.417       .  A
C1767      C1774   1.444       .  S
C1768      C1769   1.402       .  A
C1769      C1770   1.400       .  A
C1769      H1772   1.085       .  S
C1770      C1773   1.445       .  S
C1773      N1775   1.157       .  T
C1774      N1776   1.157       .  T
C1777      C1778   1.406       .  A
C1777      C1782   1.417       .  A
C1778      C1779   1.406       .  A
C1778      H1783   1.085       .  S
C1779      C1780   1.416       .  A
C1779      C1786   1.444       .  S
C1780      C1781   1.403       .  A
C1781      C1782   1.400       .  A
C1781      H1784   1.085       .  S
C1782      C1785   1.445       .  S
C1785      N1787   1.157       .  T
C1786      N1788   1.157       .  T
C1789      C1790   1.405       .  A
C1789      C1794   1.415       .  A
C1790      C1791   1.406       .  A
C1790      H1795   1.085       .  S
C1791      C1792   1.416       .  A
C1791      C1798   1.444       .  S
C1792      C1793   1.403       .  A
C1793      C1794   1.393       .  A
C1793      H1796   1.083       .  S
C1794      C1797   1.446       .  S
C1797      N1799   1.157       .  T
C1798      N1800   1.157       .  T
C1801      C1802   1.403       .  A
C1801      C1806   1.414       .  A
C1802      C1803   1.403       .  A
C1802      H1807   1.085       .  S
C1803      C1804   1.415       .  A
C1803      C1810   1.444       .  S
C1804      C1805   1.406       .  A
C1805      C1806   1.401       .  A
C1805      H1808   1.085       .  S
C1806      C1809   1.445       .  S
C1809      N1811   1.157       .  T
C1810      N1812   1.157       .  T
C1813      C1814   1.402       .  A
C1813      C1818   1.417       .  A
C1814      C1815   1.401       .  A
C1814      H1819   1.085       .  S
C1815      C1816   1.417       .  A
C1815      C1822   1.444       .  S
C1816      C1817   1.404       .  A
C1817      C1818   1.402       .  A
C1817      H1820   1.085       .  S
C1818      C1821   1.445       .  S
C1821      N1823   1.158       .  T
C1822      N1824   1.157       .  T
C1825      C2558   1.407       .  A
C1825      C1830   1.418   1_655  A
C1826      C2557   1.410       .  A
C1826      C1827   1.397       .  A
C1826      H1831   1.084       .  S
C1827      C1828   1.409       .  A
C1827      C1834   1.445       .  S
C1828      C2561   1.402   1_655  A
C1829      C2560   1.405   1_455  A
C1829      C1830   1.405       .  A
C1829      H1832   1.085       .  S
C1830      C1833   1.444       .  S
C1833      N1835   1.158       .  T
C1837      C1838   1.400       .  A
C1837      C2574   1.407       .  A
C1838      C2571   1.401       .  A
C1838      H1843   1.085       .  S
C1839      C2570   1.403       .  A
C1839      C1840   1.423       .  A
C1839      C2578   1.445       .  S
C1840      C1841   1.409       .  A
C1841      C1842   1.397       .  A
C1841      H1844   1.084       .  S
C1842      C2569   1.408       .  A
C1842      C1845   1.444       .  S
C1845      N1847   1.157       .  T
C1846      C2571   1.444       .  S
C1846      N1848   1.158       .  T
C1849      C1850   1.403       .  A
C1849      C1854   1.410       .  A
C1850      C1851   1.400       .  A
C1850      H1855   1.085       .  S
C1851      C1852   1.418       .  A
C1851      C1858   1.445       .  S
C1852      C1853   1.407       .  A
C1853      C1854   1.400       .  A
C1853      H2588   1.085       .  S
C1854      C1857   1.444       .  S
H1856      C2585   1.085   1_545  S
C1857      N2591   1.157       .  T
C1858      N1860   1.158       .  T
N1859      C2589   1.157       .  T
C1861      C1862   1.407       .  A
C1861      C1866   1.415       .  A
C1862      C1863   1.404       .  A
C1862      H1867   1.085       .  S
C1863      C1864   1.418       .  A
C1863      C1870   1.445       .  S
C1864      C1865   1.406       .  A
C1865      C1866   1.398       .  A
C1865      H1868   1.085       .  S
C1866      C1869   1.445       .  S
C1869      N1871   1.157       .  T
C1873      C1874   1.405       .  A
C1873      C1878   1.416       .  A
C1874      C1875   1.397       .  A
C1874      H1879   1.085       .  S
C1875      C1876   1.416       .  A
C1875      C1882   1.446       .  S
C1876      C1877   1.405       .  A
C1877      C1878   1.404       .  A
C1877      H1880   1.085       .  S
C1878      C1881   1.444       .  S
C1881      N1883   1.157       .  T
C1882      N1884   1.157       .  T
C1885      C1886   1.410       .  A
C1885      C1890   1.420       .  A
C1886      C1887   1.397       .  A
C1886      H1891   1.084       .  S
C1887      C1888   1.409       .  A
C1887      C1894   1.446       .  S
C1888      C1889   1.403       .  A
C1889      C1890   1.406       .  A
C1889      H1892   1.085       .  S
C1890      C1893   1.444       .  S
C1893      N1895   1.158       .  T
C1894      N1896   1.157       .  T
C1897      C1898   1.401       .  A
C1897      C1902   1.411       .  A
C1898      C1899   1.397       .  A
C1898      H1903   1.086       .  S
C1899      C1900   1.419       .  A
C1899      C1906   1.445       .  S
C1900      C1901   1.410       .  A
C1901      C1902   1.409       .  A
C1902      C1905   1.443       .  S
C1905      N1907   1.157       .  T
C1906      N1908   1.157       .  T
C1909      C1910   1.411       .  A
C1909      C2646   1.421       .  A
C1910      C1911   1.407       .  A
C1910      H1915   1.084       .  S
C1911      C2644   1.413       .  A
C1911      C1918   1.444       .  S
C1912      C2643   1.415       .  A
C1912      C1913   1.406   1_565  A
C1913      C1914   1.400   1_545  A
C1913      H1916   1.085       .  S
C1914      C2641   1.418       .  A
C1914      C1917   1.445       .  S
C1917      N1919   1.158   1_565  T
C1918      N1920   1.157       .  T
C1921      C1926   1.413       .  A
C1922      C1923   1.407       .  A
C1922      H1927   1.084       .  S
C1923      C2662   1.444       .  S
C1924      C1925   1.404       .  A
C1925      C1926   1.396       .  A
C1925      H1928   1.085       .  S
C1926      C1929   1.445       .  S
C1929      N1931   1.157       .  T
C1930      C2655   1.444       .  S
C1930      N1932   1.157       .  T
C1933      C1934   1.408       .  A
C1933      C1938   1.417       .  A
C1934      C1935   1.407       .  A
C1934      H1939   1.084       .  S
C1935      C1936   1.418       .  A
C1935      C1942   1.444       .  S
C1936      C1937   1.407       .  A
C1937      C1938   1.399       .  A
C1937      H1940   1.085       .  S
C1938      C1941   1.445       .  S
C1941      N1943   1.157       .  T
C1942      N1944   1.158       .  T
C1945      C1946   1.397       .  A
C1945      C1950   1.410       .  A
C1946      C1947   1.398       .  A
C1946      H1951   1.086       .  S
C1947      C1948   1.425       .  A
C1947      C1954   1.446       .  S
C1948      C1949   1.409       .  A
C1949      C1950   1.405       .  A
C1949      H1952   1.084       .  S
C1950      C1953   1.444       .  S
C1953      N1955   1.157       .  T
C1957      C1958   1.402       .  A
C1957      C1962   1.408       .  A
C1958      C1959   1.405       .  A
C1958      H1963   1.085       .  S
C1959      C1960   1.421       .  A
C1959      C1966   1.444       .  S
C1960      C1961   1.409       .  A
C1961      C1962   1.392       .  A
C1961      H1964   1.084       .  S
C1962      C1965   1.447       .  S
C1965      N1967   1.157       .  T
C1966      N1968   1.158       .  T
C1969      C1970   1.405       .  A
C1969      C1974   1.413       .  A
C1970      C1971   1.402       .  A
C1970      H1975   1.085       .  S
C1971      C1972   1.409       .  A
C1971      C1978   1.444       .  S
C1972      C1973   1.401       .  A
C1973      C1974   1.397       .  A
C1973      H1976   1.085       .  S
C1974      C1977   1.446       .  S
C1977      N1979   1.158       .  T
C1978      N1980   1.157       .  T
C1981      C1982   1.406       .  A
C1981      C1986   1.415       .  A
C1982      C1983   1.398       .  A
C1982      H1987   1.085       .  S
C1983      C1984   1.418       .  A
C1983      C1990   1.445       .  S
C1984      C1985   1.409       .  A
C1985      C1986   1.405       .  A
C1985      H1988   1.084       .  S
C1986      C1989   1.444       .  S
C1989      N1991   1.157       .  T
C1990      N1992   1.158       .  T
C1993      C1994   1.405       .  A
C1994      C1995   1.403       .  A
C1994      H1999   1.085       .  S
C1995      C2002   1.445       .  S
C1996      C1997   1.404       .  A
C1997      C1998   1.399       .  A
C1997      H2000   1.085       .  S
C1998      C2001   1.444       .  S
C2001      N2003   1.157       .  T
C2002      N2004   1.157       .  T
C2005      C2006   1.407       .  A
C2005      C2010   1.414       .  A
C2006      C2007   1.398       .  A
C2006      H2011   1.085       .  S
C2007      C2008   1.412       .  A
C2007      C2014   1.445       .  S
C2008      C2009   1.405       .  A
C2009      C2010   1.401       .  A
C2009      H2012   1.085       .  S
C2010      C2013   1.444       .  S
C2013      N2015   1.157       .  T
C2014      N2016   1.158       .  T
C2017      C2018   1.406       .  A
C2017      C2022   1.418       .  A
C2018      C2019   1.400       .  A
C2018      H2023   1.084       .  S
C2019      C2020   1.409       .  A
C2019      C2026   1.444       .  S
C2020      C2021   1.400       .  A
C2021      C2022   1.399       .  A
C2021      H2024   1.085       .  S
C2022      C2025   1.445       .  S
C2025      N2027   1.158       .  T
C2026      N2028   1.157       .  T
C2029      C2030   1.405       .  A
C2029      C2034   1.418       .  A
C2030      C2031   1.400       .  A
C2030      H2035   1.085       .  S
C2031      C2032   1.413       .  A
C2031      C2038   1.445       .  S
C2032      C2033   1.401       .  A
C2033      C2034   1.402       .  A
C2033      H2036   1.085       .  S
C2034      C2037   1.444       .  S
C2037      N2039   1.157       .  T
C2038      N2040   1.157   1_655  T
C2041      C2042   1.408       .  A
C2041      C2046   1.418       .  A
C2042      C2043   1.403       .  A
C2042      H2047   1.084       .  S
C2043      C2044   1.414       .  A
C2043      C2050   1.443       .  S
C2044      C2045   1.405       .  A
C2045      C2046   1.399       .  A
C2045      H2048   1.085       .  S
C2046      C2049   1.446       .  S
C2049      N2051   1.158       .  T
C2050      N2052   1.157       .  T
C2053      C2054   1.406       .  A
C2053      C2058   1.411       .  A
C2054      C2055   1.404       .  A
C2054      H2059   1.084       .  S
C2055      C2056   1.415       .  A
C2055      C2062   1.444       .  S
C2056      C2057   1.408       .  A
C2057      C2058   1.398       .  A
C2057      H2060   1.085       .  S
C2058      C2061   1.445       .  S
C2061      N2063   1.157       .  T
C2062      N2064   1.157       .  T
C2065      C2066   1.404       .  A
C2065      C2070   1.422       .  A
C2066      C2067   1.396       .  A
C2066      H2071   1.085       .  S
C2067      C2068   1.416       .  A
C2067      C2074   1.446       .  S
C2068      C2069   1.402       .  A
C2069      C2070   1.406       .  A
C2069      H2072   1.085       .  S
C2070      C2073   1.443       .  S
C2073      N2075   1.157       .  T
C2074      N2808   1.157       .  T
N2076      C2806   1.157       .  T
C2077      C2078   1.401       .  A
C2077      C2082   1.414       .  A
C2078      C2079   1.391       .  A
C2078      H2083   1.085       .  S
C2079      C2080   1.415       .  A
C2079      C2086   1.446       .  S
C2080      C2081   1.408       .  A
C2081      C2082   1.407       .  A
C2081      H2084   1.085       .  S
C2082      C2085   1.444       .  S
C2085      N2087   1.158       .  T
C2086      N2088   1.157       .  T
C2089      C2090   1.398       .  A
C2089      C2094   1.409       .  A
C2090      C2091   1.397       .  A
C2090      H2095   1.086       .  S
C2091      C2092   1.425       .  A
C2091      C2098   1.446       .  S
C2092      C2093   1.411       .  A
C2093      C2094   1.406       .  A
C2093      H2096   1.084       .  S
C2094      C2097   1.444       .  S
C2097      N2099   1.157       .  T
C2098      N2100   1.158       .  T
C2101      C2102   1.407       .  A
C2101      C2106   1.413       .  A
C2102      C2103   1.399   1_545  A
C2102      H2107   1.085       .  S
C2103      C2104   1.417       .  A
C2103      C2842   1.446       .  S
C2104      C2223   1.493       .  S
C2104      C2105   1.407   1_565  A
C2105      C2106   1.403       .  A
C2105      H2108   1.079       .  S
C2106      C2109   1.444       .  S
C2109      N2111   1.157       .  T
C2110      C2835   1.447       .  S
C2110      N2112   1.158       .  T
C2113      C2846   1.407       .  A
C2113      C2118   1.415       .  A
C2114      C2845   1.400       .  A
C2114      C2115   1.403       .  A
C2114      H2119   1.085   1_655  S
C2115      C2848   1.420       .  A
C2115      C2122   1.442       .  S
C2116      C2847   1.419       .  A
C2116      C2117   1.408       .  A
C2117      C2118   1.400       .  A
C2117      H2120   1.084       .  S
C2118      C2121   1.445       .  S
C2121      N2123   1.157       .  T
C2122      N2124   1.157   1_565  T
C2125      C2126   1.402       .  A
C2125      C2130   1.411       .  A
C2126      C2127   1.402       .  A
C2126      H2131   1.084       .  S
C2127      C2128   1.412       .  A
C2127      C2134   1.444       .  S
C2128      C2211   1.478       .  S
C2128      C2129   1.403       .  A
C2129      C2130   1.401       .  A
C2129      H2864   1.085       .  S
C2130      C2133   1.444       .  S
H2132      C2861   1.084       .  S
C2133      N2135   1.157       .  T
C2134      N2136   1.157       .  T
C2137      C2870   1.405       .  A
C2137      C2142   1.415       .  A
C2138      C2869   1.406       .  A
C2138      C2139   1.401       .  A
C2138      H2143   1.085       .  S
C2139      C2872   1.413       .  A
C2139      C2146   1.444       .  S
C2140      C2871   1.414       .  A
C2140      C2141   1.404       .  A
C2141      C2142   1.398       .  A
C2141      H2144   1.085       .  S
C2142      C2145   1.445       .  S
C2145      N2147   1.157   1_554  T
C2146      N2148   1.157       .  T
C2149      C2150   1.402       .  A
C2149      C2154   1.410       .  A
C2150      C2151   1.405       .  A
C2150      H2155   1.085       .  S
C2151      C2152   1.419       .  A
C2151      C2158   1.444       .  S
C2152      C2153   1.409       .  A
C2153      C2154   1.398       .  A
C2153      H2156   1.084       .  S
C2154      C2157   1.446       .  S
C2157      N2159   1.157       .  T
C2158      N2160   1.157       .  T
C2161      C2162   1.403   1_655  A
C2161      C2166   1.413       .  A
C2163      C2164   1.413       .  A
C2163      C2170   1.445       .  S
C2165      C2166   1.404   1_455  A
C2165      H2168   1.085       .  S
C2166      C2169   1.443       .  S
C2169      N2171   1.157       .  T
C2170      N2172   1.157       .  T
C2173      C2174   1.408       .  A
C2173      C2178   1.417       .  A
C2174      C2175   1.401       .  A
C2174      H2179   1.084       .  S
C2175      C2176   1.417       .  A
C2175      C2182   1.445       .  S
C2176      C2177   1.408       .  A
C2177      C2178   1.404       .  A
C2177      H2180   1.085       .  S
C2178      C2181   1.443       .  S
C2181      N2183   1.157       .  T
C2182      N2184   1.157       .  T
C2185      C2186   1.403       .  A
C2185      C2190   1.415       .  A
C2186      C2187   1.403       .  A
C2186      H2191   1.082       .  S
C2187      C2188   1.419       .  A
C2187      C2194   1.444       .  S
C2188      C2189   1.407       .  A
C2189      C2190   1.399       .  A
C2189      H2192   1.084       .  S
C2190      C2193   1.445       .  S
C2193      N2195   1.158       .  T
C2194      N2928   1.157       .  T
N2196      C2926   1.158       .  T
C2197      N2198   1.361       .  A
C2197      N2202   1.365       .  A
C2197      C2905   1.501       .  S
C2199      C2217   1.461   1_455  S
N2200      C2201   1.358       .  A
C2201      N2202   1.363       .  A
C2201      C2917   1.487       .  S
C2203      N2204   1.360       .  A
C2203      N2208   1.360       .  A
C2203      C2893   1.469       .  S
N2204      C2205   1.357       .  A
C2205      N2206   1.351       .  A
C2205      C2219   1.455       .  S
N2206      C2207   1.354       .  A
C2207      N2208   1.358       .  A
C2207      C2881   1.481       .  S
C2209      N2214   1.357       .  A
C2209      C2872   1.484       .  S
C2211      N2212   1.360       .  A
N2212      C2213   1.359       .  A
C2213      N2214   1.357       .  A
C2213      C2215   1.464       .  S
C2215      N2216   1.358       .  A
C2215      N2220   1.355       .  A
N2216      C2217   1.360       .  A
C2217      N2218   1.358       .  A
N2218      C2219   1.357       .  A
C2219      N2220   1.355       .  A
C2221      N2222   1.363       .  A
C2221      N2226   1.364       .  A
C2221      C2848   1.498       .  S
N2222      C2223   1.362       .  A
C2223      N2224   1.356       .  A
N2224      C2225   1.353       .  A
C2225      N2226   1.359       .  A
C2225      C2235   1.468       .  S
C2227      N2228   1.354       .  A
C2227      N2232   1.356       .  A
C2227      C2821   1.474       .  S
N2228      C2229   1.356       .  A
C2229      N2230   1.361       .  A
C2229      C2809   1.493       .  S
N2230      C2231   1.363       .  A
C2231      N2232   1.359       .  A
C2231      C2233   1.463       .  S
C2233      N2234   1.359       .  A
C2233      N2238   1.359       .  A
N2234      C2235   1.358       .  A
C2235      N2236   1.360       .  A
N2236      C2237   1.358       .  A
C2237      N2238   1.358       .  A
C2237      C2241   1.469       .  S
C2239      N2240   1.360       .  A
C2239      N2244   1.364       .  A
C2239      C2785   1.493       .  S
N2240      C2241   1.356       .  A
C2241      N2242   1.355       .  A
N2242      C2243   1.361       .  A
C2243      N2244   1.360       .  A
C2243      C2797   1.498       .  S
O2246     Ni2269   1.908       .  S
O2246      C2255   1.265       .  A
O2247     Ni2251   1.909       .  S
O2247     Ni2269   1.911   1_556  S
O2247      H2270   0.966       .  S
C2248      C2800   1.489       .  S
C2248      O2265   1.282       .  A
C2248      O2257   1.275       .  A
O2249      C2255   1.266       .  A
O2250      C2252   1.266       .  A
Ni2251     O2254   1.942   1_556  S
C2252      C2824   1.496       .  S
C2252      O2262   1.275       .  A
O2253     Ni2269   1.901       .  S
O2253      C2259   1.270       .  A
O2254      C2259   1.280       .  A
C2255      C2869   1.487       .  S
O2256      C2258   1.267       .  A
O2257     Ni2268   1.908       .  S
C2258      C2896   1.484       .  S
C2258      O2264   1.271       .  A
C2259      C2920   1.491       .  S
H2260      O2261   0.966       .  S
O2261     Ni2263   1.905       .  S
O2261     Ni2268   1.898       .  S
Ni2263     O2267   1.917       .  S
Ni2263     O2265   1.937       .  S
C2266      O2267   1.274       .  A
C2271      N2272   1.361       .  A
C2271      N2276   1.362       .  A
C2271      C2776   1.483       .  S
N2272      C2273   1.357       .  A
C2273      N2274   1.351       .  A
N2274      C2275   1.355       .  A
C2275      N2276   1.361       .  A
C2275      C2764   1.476       .  S
C2277      N2278   1.362       .  A
C2277      C2749   1.489       .  S
C2279      N2280   1.359       .  A
C2279      C2289   1.461       .  S
N2280      C2281   1.356       .  A
C2281      N2282   1.355       .  A
C2281      C2737   1.481       .  S
C2283      N2284   1.360       .  A
C2283      N2288   1.359       .  A
C2283      C2725   1.475       .  S
N2284      C2285   1.359       .  A
C2285      N2286   1.355       .  A
C2285      C2716   1.487       .  S
N2286      C2287   1.353       .  A
C2287      N2288   1.357       .  A
C2287      C2293   1.456       .  S
C2289      N2294   1.355       .  A
N2290      C2291   1.358       .  A
N2292      C2293   1.357       .  A
C2293      N2294   1.355       .  A
O2295      C2316   1.274       .  A
O2296     Ni2319   1.897       .  S
O2296      C2305   1.262       .  A
O2297     Ni2301   1.913       .  S
O2297     Ni2319   1.909       .  S
O2297     Ni2313   1.917       .  S
O2297      H2320   0.966       .  S
C2298      C2833   1.492       .  S
C2298      O2315   1.277       .  A
C2298      O2307   1.277       .  A
O2299     Ni2318   1.932       .  S
O2299      C2305   1.270       .  A
O2300     Ni2318   1.902       .  S
O2300      C2302   1.268       .  A
Ni2301     O2304   1.942       .  S
Ni2301     O2306   1.906       .  S
C2302      C2812   1.484       .  S
C2302      O2312   1.272       .  A
O2303     Ni2319   1.886       .  S
O2303      C2309   1.264       .  A
O2304      C2309   1.277       .  A
C2305      C2740   1.482       .  S
O2306      C2308   1.267       .  A
O2307     Ni2318   1.914       .  S
C2308      C2728   1.479       .  S
C2308      O2314   1.275       .  A
C2309      C2761   1.482       .  S
H2310      O2311   0.966       .  S
O2311     Ni2319   1.895       .  S
O2311     Ni2313   1.906       .  S
O2311     Ni2318   1.909       .  S
O2312     Ni2313   1.935       .  S
Ni2313     O2317   1.908       .  S
Ni2313     O2315   1.922       .  S
O2314     Ni2319   1.947       .  S
C2316      C2788   1.479       .  S
C2321      N2322   1.359       .  A
C2321      N2326   1.357       .  A
C2321      C2692   1.496       .  S
N2322      C2323   1.361       .  A
C2323      N2324   1.361       .  A
C2323      C2339   1.466       .  S
N2324      C2325   1.359       .  A
C2325      N2326   1.354       .  A
C2325      C2704   1.476       .  S
C2327      N2328   1.365       .  A
C2327      N2332   1.359       .  A
C2327      C2665   1.495       .  S
N2328      C2329   1.364       .  A
C2329      N2330   1.355       .  A
C2329      C2680   1.491       .  S
N2330      C2331   1.351       .  A
C2331      N2332   1.353       .  A
C2333      N2334   1.362       .  A
C2333      N2338   1.358       .  A
N2334      C2335   1.362       .  A
C2335      N2336   1.362       .  A
C2335      C2644   1.487       .  S
N2336      C2337   1.355       .  A
C2337      N2338   1.355       .  A
C2337      C2341   1.465       .  S
C2339      N2340   1.362       .  A
C2339      N2344   1.359       .  A
N2340      C2341   1.360       .  A
C2341      N2342   1.356       .  A
N2342      C2343   1.355       .  A
C2343      N2344   1.357       .  A
O2345     Ni2351   1.930       .  S
O2345      C2366   1.273       .  A
O2346     Ni2369   1.908       .  S
O2346      C2355   1.268       .  A
O2347     Ni2351   1.918       .  S
O2347     Ni2369   1.913       .  S
O2347     Ni2363   1.910       .  S
O2347      H2370   0.966       .  S
C2348      C2752   1.471       .  S
C2348      O2365   1.263       .  A
C2348      O2357   1.272       .  A
O2349     Ni2368   1.927       .  S
O2349      C2355   1.272       .  A
O2350     Ni2368   1.901       .  S
O2350      C2352   1.270       .  A
Ni2351     O2354   1.931       .  S
Ni2351     O2356   1.903       .  S
C2352      C2773   1.488       .  S
C2352      O2362   1.279       .  A
O2353     Ni2369   1.903       .  S
O2353      C2359   1.265       .  A
O2354      C2359   1.273       .  A
C2355      C2641   1.497       .  S
O2356      C2358   1.271       .  A
O2357     Ni2368   1.939       .  S
C2358      C2668   1.498       .  S
C2358      O2364   1.277       .  A
C2359      C2689   1.474       .  S
H2360      O2361   0.966       .  S
O2361     Ni2369   1.914       .  S
O2361     Ni2363   1.907       .  S
O2361     Ni2368   1.917       .  S
O2362     Ni2363   1.953       .  S
Ni2363     O2367   1.900       .  S
Ni2363     O2365   1.899       .  S
O2364     Ni2369   1.949       .  S
C2366      C2713   1.491       .  S
C2366      O2367   1.265       .  A
C2371      N2372   1.357       .  A
C2371      N2376   1.354       .  A
C2371      C2617   1.493       .  S
N2372      C2373   1.360       .  A
C2373      N2374   1.365       .  A
C2373      C2389   1.468       .  S
N2374      C2375   1.362       .  A
C2375      N2376   1.353       .  A
C2375      C2629   1.479       .  S
C2377      N2378   1.362       .  A
C2377      N2382   1.366       .  A
C2377      C2593   1.499       .  S
N2378      C2379   1.358       .  A
C2379      N2380   1.354       .  A
C2379      C2393   1.468       .  S
N2380      C2381   1.359       .  A
C2381      N2382   1.365       .  A
C2381      C2605   1.500       .  S
C2383      N2384   1.359       .  A
C2383      N2388   1.358       .  A
C2383      C2581   1.484       .  S
N2384      C2385   1.355       .  A
C2385      N2386   1.355       .  A
C2385      C2391   1.463       .  S
N2386      C2387   1.360       .  A
C2387      N2388   1.360       .  A
C2387      C2572   1.490   1_565  S
C2389      N2390   1.359       .  A
C2389      N2394   1.359       .  A
N2390      C2391   1.360       .  A
C2391      N2392   1.358       .  A
N2392      C2393   1.357       .  A
C2393      N2394   1.358       .  A
O2395     Ni2401   1.925       .  S
O2395      C2416   1.268       .  A
O2396     Ni2419   1.910       .  S
O2396      C2405   1.268       .  A
O2397     Ni2401   1.914       .  S
O2397     Ni2413   1.904       .  S
O2397      H2420   0.965       .  S
C2398      C2656   1.491       .  S
C2398      O2407   1.277       .  A
O2399     Ni2418   1.935       .  S
O2399      C2405   1.273       .  A
O2400     Ni2418   1.909       .  S
O2400      C2402   1.269       .  A
Ni2401     O2404   1.910       .  S
Ni2401     O2406   1.897       .  S
C2402      C2701   1.480       .  S
C2402      O2412   1.273       .  A
O2403      C2409   1.274       .  A
O2404      C2409   1.271       .  A
C2405      C2608   1.487       .  S
O2406      C2408   1.267       .  A
O2407     Ni2418   1.942       .  S
C2408      O2414   1.273       .  A
C2409      C2584   1.482       .  S
H2410      O2411   0.966       .  S
O2411     Ni2419   1.908       .  S
O2411     Ni2418   1.919       .  S
Ni2413     O2417   1.908       .  S
Ni2413     O2415   1.893       .  S
C2416      C2677   1.484       .  S
C2416      O2417   1.263       .  A
C2421      N2422   1.358   1_655  A
C2421      N2426   1.357       .  A
C2421      C2557   1.496       .  S
N2422      C2423   1.358       .  A
C2423      N2424   1.361   1_545  A
N2424      C2425   1.362   1_455  A
C2425      N2426   1.355   1_565  A
C2425      C2545   1.488       .  S
C2427      N2428   1.360       .  A
C2427      N2432   1.361       .  A
C2427      C2533   1.489       .  S
N2428      C2429   1.362       .  A
C2429      N2430   1.360       .  A
C2429      C2524   1.500       .  S
N2430      C2431   1.359       .  A
C2431      N2432   1.360       .  A
C2433      N2434   1.360       .  A
C2433      N2438   1.363       .  A
C2433      C2500   1.495       .  S
N2434      C2435   1.355       .  A
C2435      N2436   1.356       .  A
C2435      C2441   1.464       .  S
N2436      C2437   1.361       .  A
C2437      N2438   1.362       .  A
C2437      C2512   1.491       .  S
C2439      N2440   1.358   1_545  A
C2439      N2444   1.361       .  A
N2440      C2441   1.357       .  A
C2441      N2442   1.357   1_565  A
N2442      C2443   1.359       .  A
C2443      N2444   1.361       .  A
O2445     Ni2451   1.925       .  S
O2445      C2466   1.271       .  A
O2446     Ni2469   1.917       .  S
O2446      C2455   1.271       .  A
O2447     Ni2451   1.913       .  S
O2447     Ni2469   1.916       .  S
O2447     Ni2463   1.920       .  S
O2447      H2470   0.966       .  S
C2448      C2857   1.476       .  S
C2448      O2465   1.275       .  A
C2448      O2457   1.276       .  A
O2449     Ni2468   1.930       .  S
O2449      C2455   1.272       .  A
O2450     Ni2468   1.912       .  S
O2450      C2452   1.269       .  A
Ni2451     O2454   1.922       .  S
Ni2451     O2456   1.895       .  S
C2452      C2908   1.500       .  S
C2452      O2462   1.272       .  A
O2453     Ni2469   1.922       .  S
O2453      C2459   1.274       .  A
O2454      C2459   1.274       .  A
C2455      C2509   1.491       .  S
O2456      C2458   1.266       .  A
O2457     Ni2468   1.927       .  S
C2458      C2548   1.488       .  S
C2458      O2464   1.277       .  A
C2459      C2521   1.484       .  S
H2460      O2461   0.967       .  S
O2461     Ni2469   1.915       .  S
O2461     Ni2463   1.905       .  S
O2461     Ni2468   1.909       .  S
O2462     Ni2463   1.926       .  S
Ni2463     O2467   1.905       .  S
Ni2463     O2465   1.923       .  S
O2464     Ni2469   1.941       .  S
C2466      C2884   1.486       .  S
C2466      O2467   1.266       .  A
O2471     Ni2477   1.925       .  S
O2471      C2492   1.270       .  A
O2472     Ni2495   1.907       .  S
O2473     Ni2477   1.918       .  S
O2473     Ni2495   1.915       .  S
O2473     Ni2489   1.926       .  S
O2473      H2496   0.969       .  S
C2474      C2620   1.471       .  S
C2474      O2491   1.267       .  A
C2474      O2483   1.272       .  A
O2475      C2481   1.273       .  A
O2476     Ni2494   1.896   1_455  S
O2476      C2478   1.268   1_455  A
Ni2477     O2480   1.927       .  S
Ni2477     O2482   1.906       .  S
C2478      O2488   1.275       .  A
O2479     Ni2495   1.905       .  S
O2479      C2485   1.265       .  A
O2480      C2485   1.270       .  A
C2481      C2497   1.492       .  S
O2482      C2484   1.273       .  A
O2483     Ni2494   1.924       .  S
C2484      C2536   1.493       .  S
C2484      O2490   1.281       .  A
C2485      C2560   1.479       .  S
H2486      O2487   0.966       .  S
O2487     Ni2495   1.903       .  S
O2487     Ni2489   1.903       .  S
O2487     Ni2494   1.913       .  S
O2488     Ni2489   1.947       .  S
Ni2489     O2493   1.898       .  S
Ni2489     O2491   1.903       .  S
O2490     Ni2495   1.951       .  S
C2492      C2569   1.477       .  S
C2492      O2493   1.264       .  A
C2497      C2498   1.407       .  A
C2497      C2502   1.415       .  A
C2498      C2499   1.408       .  A
C2499      C2500   1.417       .  A
C2499      C2506   1.444       .  S
C2500      C2501   1.406       .  A
C2501      C2502   1.398       .  A
C2501      H2504   1.084       .  S
C2502      C2505   1.445       .  S
C2505      N2507   1.157       .  T
C2506      N2508   1.157       .  T
C2509      C2510   1.407       .  A
C2509      C2514   1.416       .  A
C2510      C2511   1.407       .  A
C2510      H2515   1.085       .  S
C2511      C2512   1.416       .  A
C2511      C2518   1.444       .  S
C2512      C2513   1.405       .  A
C2513      C2514   1.400       .  A
C2513      H2516   1.085       .  S
C2514      C2517   1.445       .  S
C2517      N2519   1.157       .  T
C2518      N2520   1.157       .  T
C2521      C2522   1.402       .  A
C2521      C2526   1.412       .  A
C2522      C2523   1.408       .  A
C2522      H2527   1.085       .  S
C2523      C2524   1.422       .  A
C2523      C2530   1.444       .  S
C2524      C2525   1.408       .  A
C2525      C2526   1.399       .  A
C2525      H2528   1.083       .  S
C2526      C2529   1.446       .  S
C2529      N2531   1.157       .  T
C2530      N2532   1.158       .  T
C2533      C2534   1.405       .  A
C2533      C2538   1.414       .  A
C2534      C2535   1.404       .  A
C2534      H2539   1.085       .  S
C2535      C2536   1.417       .  A
C2535      C2542   1.444       .  S
C2536      C2537   1.407       .  A
C2537      C2538   1.403       .  A
C2537      H2540   1.085       .  S
C2538      C2541   1.444       .  S
C2541      N2543   1.157       .  T
C2542      N2544   1.157       .  T
C2545      C2546   1.403       .  A
C2545      C2550   1.417       .  A
C2546      C2547   1.402       .  A
C2546      H2551   1.085       .  S
C2547      C2548   1.419       .  A
C2547      C2554   1.445       .  S
C2548      C2549   1.403       .  A
C2549      C2550   1.400       .  A
C2549      H2552   1.085       .  S
C2550      C2553   1.444       .  S
C2553      N2555   1.157       .  T
C2554      N2556   1.158       .  T
C2557      C2562   1.421   1_655  A
C2558      C2559   1.392       .  A
C2558      H2563   1.083       .  S
C2559      C2560   1.411       .  A
C2559      C2566   1.446       .  S
C2561      C2562   1.404       .  A
C2561      H2564   1.085       .  S
C2562      C2565   1.444       .  S
C2565      N2567   1.158       .  T
C2569      C2570   1.401       .  A
C2570      H2575   1.085       .  S
C2571      C2572   1.420       .  A
C2572      C2573   1.409   1_545  A
C2573      C2574   1.398   1_565  A
C2573      H2576   1.084       .  S
C2574      C2577   1.444       .  S
C2577      N2579   1.157       .  T
C2578      N2580   1.158       .  T
C2581      C2582   1.403       .  A
C2581      C2586   1.416       .  A
C2582      C2583   1.396       .  A
C2582      H2587   1.085       .  S
C2583      C2584   1.415       .  A
C2583      C2590   1.446       .  S
C2584      C2585   1.404       .  A
C2585      C2586   1.403       .  A
C2586      C2589   1.443   1_565  S
C2590      N2592   1.157       .  T
C2593      C2594   1.406       .  A
C2593      C2598   1.417       .  A
C2594      C2595   1.407       .  A
C2594      H2599   1.085       .  S
C2595      C2596   1.420       .  A
C2595      C2602   1.444       .  S
C2596      C2597   1.408       .  A
C2597      C2598   1.404       .  A
C2597      H2600   1.084       .  S
C2598      C2601   1.445       .  S
C2601      N2603   1.157       .  T
C2605      C2606   1.410       .  A
C2605      C2610   1.419       .  A
C2606      C2607   1.400       .  A
C2606      H2611   1.084       .  S
C2607      C2608   1.410       .  A
C2607      C2614   1.445       .  S
C2608      C2609   1.405       .  A
C2609      C2610   1.408       .  A
C2609      H2612   1.085       .  S
C2610      C2613   1.444       .  S
C2613      N2615   1.157       .  T
C2614      N2616   1.157       .  T
C2617      C2618   1.410       .  A
C2617      C2622   1.421       .  A
C2618      C2619   1.392       .  A
C2618      H2623   1.084       .  S
C2619      C2620   1.407       .  A
C2619      C2626   1.447       .  S
C2620      C2621   1.402       .  A
C2621      C2622   1.404       .  A
C2621      H2624   1.085       .  S
C2622      C2625   1.444       .  S
C2625      N2627   1.158       .  T
C2626      N2628   1.157       .  T
C2629      C2630   1.401       .  A
C2629      C2634   1.408       .  A
C2630      C2631   1.397       .  A
C2630      H2635   1.086       .  S
C2631      C2632   1.418       .  A
C2631      C2638   1.445       .  S
C2632      C2633   1.412       .  A
C2633      C2634   1.408       .  A
C2634      C2637   1.444       .  S
C2637      N2639   1.157       .  T
C2638      N2640   1.157       .  T
C2641      C2642   1.409       .  A
C2642      C2643   1.407       .  A
C2642      H2647   1.085       .  S
C2643      C2650   1.443       .  S
C2644      C2645   1.402       .  A
C2645      C2646   1.397       .  A
C2645      H2648   1.085       .  S
C2646      C2649   1.445       .  S
C2649      N2651   1.157       .  T
C2650      N2652   1.157       .  T
C2653      C2658   1.415       .  A
C2654      C2655   1.403       .  A
C2654      H2659   1.084       .  S
C2656      C2657   1.406       .  A
C2657      C2658   1.397       .  A
C2657      H2660   1.084       .  S
C2658      C2661   1.445       .  S
C2661      N2663   1.157       .  T
C2662      N2664   1.157       .  T
C2665      C2666   1.406       .  A
C2665      C2670   1.418       .  A
C2666      C2667   1.404       .  A
C2666      H2671   1.084       .  S
C2667      C2668   1.419       .  A
C2667      C2674   1.444       .  S
C2668      C2669   1.407       .  A
C2669      C2670   1.400       .  A
C2669      H2672   1.085       .  S
C2670      C2673   1.446       .  S
C2673      N2675   1.158       .  T
C2674      N2676   1.157       .  T
C2677      C2678   1.402       .  A
C2677      C2682   1.414       .  A
C2678      C2679   1.397       .  A
C2678      H2683   1.085       .  S
C2679      C2680   1.420       .  A
C2679      C2686   1.445       .  S
C2680      C2681   1.406       .  A
C2681      C2682   1.403       .  A
C2681      H2684   1.085       .  S
C2682      C2685   1.443       .  S
C2685      N2687   1.157       .  T
C2689      C2690   1.402       .  A
C2689      C2694   1.407       .  A
C2690      C2691   1.405       .  A
C2690      H2695   1.085       .  S
C2691      C2692   1.421       .  A
C2691      C2698   1.444       .  S
C2692      C2693   1.410       .  A
C2693      C2694   1.394       .  A
C2693      H2696   1.084       .  S
C2694      C2697   1.446       .  S
C2697      N2699   1.157       .  T
C2698      N2700   1.158       .  T
C2701      C2702   1.405       .  A
C2701      C2706   1.414       .  A
C2702      C2703   1.403       .  A
C2702      H2707   1.085       .  S
C2703      C2704   1.410       .  A
C2703      C2710   1.443       .  S
C2704      C2705   1.403       .  A
C2705      C2706   1.400       .  A
C2705      H2708   1.085       .  S
C2706      C2709   1.445       .  S
C2709      N2711   1.157       .  T
C2710      N2712   1.157       .  T
C2713      C2714   1.406       .  A
C2713      C2718   1.418       .  A
C2714      C2715   1.398       .  A
C2714      H2719   1.085       .  S
C2715      C2716   1.416       .  A
C2715      C2722   1.445       .  S
C2716      C2717   1.405       .  A
C2717      C2718   1.402       .  A
C2717      H2720   1.085       .  S
C2718      C2721   1.444       .  S
C2721      N2723   1.157       .  T
C2722      N2724   1.157       .  T
C2725      C2726   1.404       .  A
C2726      C2727   1.401       .  A
C2726      H2731   1.085       .  S
C2727      C2734   1.445       .  S
C2728      C2729   1.402       .  A
C2729      C2730   1.402       .  A
C2729      H2732   1.085       .  S
C2730      C2733   1.444       .  S
C2733      N2735   1.157       .  T
C2734      N2736   1.157       .  T
C2737      C2738   1.404       .  A
C2737      C2742   1.413       .  A
C2738      C2739   1.397       .  A
C2738      H2743   1.085       .  S
C2739      C2740   1.414       .  A
C2739      C2746   1.445       .  S
C2740      C2741   1.406       .  A
C2741      C2742   1.401       .  A
C2741      H2744   1.085       .  S
C2742      C2745   1.444       .  S
C2745      N2747   1.157       .  T
C2746      N2748   1.158       .  T
C2749      C2750   1.407       .  A
C2749      C2754   1.420       .  A
C2750      C2751   1.402       .  A
C2750      H2755   1.084       .  S
C2751      C2752   1.409       .  A
C2751      C2758   1.444       .  S
C2752      C2753   1.398       .  A
C2753      C2754   1.397       .  A
C2753      H2756   1.085       .  S
C2754      C2757   1.445       .  S
C2757      N2759   1.158       .  T
C2758      N2760   1.157       .  T
C2761      C2762   1.403       .  A
C2761      C2766   1.418       .  A
C2762      C2763   1.396       .  A
C2762      H2767   1.085       .  S
C2763      C2764   1.412       .  A
C2763      C2770   1.445       .  S
C2764      C2765   1.402       .  A
C2765      C2766   1.401       .  A
C2765      H2768   1.085       .  S
C2766      C2769   1.445       .  S
C2769      N2771   1.158       .  T
C2770      N2772   1.157   1_655  T
C2773      C2774   1.407       .  A
C2773      C2778   1.415       .  A
C2774      C2775   1.403       .  A
C2774      H2779   1.085       .  S
C2775      C2776   1.412       .  A
C2775      C2782   1.444       .  S
C2776      C2777   1.404       .  A
C2777      C2778   1.400       .  A
C2777      H2780   1.085       .  S
C2778      C2781   1.445       .  S
C2781      N2783   1.157       .  T
C2782      N2784   1.157       .  T
C2785      C2786   1.408       .  A
C2785      C2790   1.418       .  A
C2786      C2787   1.401       .  A
C2786      H2791   1.080       .  S
C2787      C2788   1.410       .  A
C2787      C2794   1.445       .  S
C2788      C2789   1.403       .  A
C2789      C2790   1.400       .  A
C2789      H2792   1.085       .  S
C2790      C2793   1.444       .  S
C2793      N2795   1.157       .  T
C2794      N2796   1.158       .  T
C2797      C2798   1.407       .  A
C2797      C2802   1.422       .  A
C2798      C2799   1.397       .  A
C2798      H2803   1.084       .  S
C2799      C2800   1.416       .  A
C2799      C2806   1.446       .  S
C2800      C2801   1.402       .  A
C2801      C2802   1.405       .  A
C2801      H2804   1.085       .  S
C2802      C2805   1.442       .  S
C2805      N2807   1.157       .  T
C2809      C2810   1.407       .  A
C2809      C2814   1.417       .  A
C2810      C2811   1.396       .  A
C2810      H2815   1.085       .  S
C2811      C2812   1.412       .  A
C2811      C2818   1.446       .  S
C2812      C2813   1.405       .  A
C2813      C2814   1.408       .  A
C2813      H2816   1.085       .  S
C2814      C2817   1.443       .  S
C2817      N2819   1.157       .  T
C2818      N2820   1.157       .  T
C2821      C2822   1.397       .  A
C2821      C2826   1.408       .  A
C2822      C2823   1.395       .  A
C2822      H2827   1.086       .  S
C2823      C2824   1.424       .  A
C2823      C2830   1.445       .  S
C2824      C2825   1.411       .  A
C2825      C2826   1.405       .  A
C2825      H2828   1.084       .  S
C2826      C2829   1.443       .  S
C2829      N2831   1.157       .  T
C2830      N2832   1.157       .  T
C2833      C2834   1.404       .  A
C2833      C2838   1.416       .  A
C2834      C2835   1.393       .  A
C2834      H2839   1.085       .  S
C2835      C2836   1.423       .  A
C2836      C2837   1.409       .  A
C2837      C2838   1.406       .  A
C2837      H2840   1.083       .  S
C2838      C2841   1.444       .  S
C2841      N2843   1.157       .  T
C2842      N2844   1.158       .  T
C2845      C2850   1.413       .  A
C2846      C2847   1.411       .  A
C2846      H2851   1.085   1_655  S
C2847      C2854   1.443       .  S
C2848      C2849   1.409       .  A
C2849      C2850   1.402       .  A
C2849      H2852   1.084       .  S
C2850      C2853   1.445       .  S
C2853      N2855   1.157       .  T
C2854      N2856   1.157       .  T
C2857      C2858   1.401       .  A
C2857      C2862   1.409       .  A
C2858      C2859   1.403       .  A
C2858      H2863   1.085       .  S
C2859      C2860   1.416   1_565  A
C2859      C2866   1.444       .  S
C2860      C2861   1.406       .  A
C2861      C2862   1.403   1_545  A
C2862      C2865   1.443   1_565  S
C2865      N2867   1.157       .  T
C2866      N2868   1.157       .  T
C2869      C2874   1.417       .  A
C2870      C2871   1.400       .  A
C2870      H2875   1.085       .  S
C2871      C2878   1.444       .  S
C2872      C2873   1.404       .  A
C2873      C2874   1.400       .  A
C2873      H2876   1.085       .  S
C2874      C2877   1.444       .  S
C2877      N2879   1.157   1_554  T
C2878      N2880   1.157       .  T
C2881      C2882   1.405       .  A
C2881      C2886   1.413       .  A
C2882      C2883   1.403       .  A
C2882      H2887   1.085       .  S
C2883      C2884   1.416       .  A
C2883      C2890   1.443       .  S
C2884      C2885   1.406       .  A
C2885      C2886   1.394       .  A
C2885      H2888   1.085       .  S
C2886      C2889   1.446       .  S
C2889      N2891   1.157       .  T
C2890      N2892   1.157       .  T
C2893      C2894   1.399   1_655  A
C2893      C2898   1.409       .  A
C2895      C2896   1.415       .  A
C2895      C2902   1.445       .  S
C2897      C2898   1.402       .  A
C2897      H2900   1.085       .  S
C2898      C2901   1.445       .  S
C2901      N2903   1.157       .  T
C2902      N2904   1.157       .  T
C2905      C2906   1.409       .  A
C2905      C2910   1.418       .  A
C2906      C2907   1.401       .  A
C2906      H2911   1.084       .  S
C2907      C2908   1.418       .  A
C2907      C2914   1.445       .  S
C2908      C2909   1.409       .  A
C2909      C2910   1.405       .  A
C2909      H2912   1.085       .  S
C2910      C2913   1.444       .  S
C2913      N2915   1.158       .  T
C2914      N2916   1.158       .  T
C2917      C2918   1.405       .  A
C2917      C2922   1.414       .  A
C2918      C2919   1.406       .  A
C2918      H2923   1.085       .  S
C2919      C2920   1.419       .  A
C2919      C2926   1.445       .  S
C2920      C2921   1.405       .  A
C2921      C2922   1.398       .  A
C2921      H2924   1.085       .  S
C2922      C2925   1.445       .  S
C2925      N2927   1.157       .  T
