geometry optimzed in LAMMPS
_audit_creation_date              2020-12-01 
_audit_creation_method            'lammps2cif' 
_symmetry_space_group_name_H-M    'P1' 
_symmetry_Int_Tables_number       1 
_symmetry_cell_setting            triclinic 
loop_ 
_symmetry_equiv_pos_as_xyz 
  x,y,z 
_cell_length_a                    26.69126778 
_cell_length_b                    26.596813874473185 
_cell_length_c                    26.577245449898673 
_cell_angle_alpha                 93.34071861325488 
_cell_angle_beta                  91.13101462599371 
_cell_angle_gamma                 90.00331338531821 
loop_ 
_atom_site_label 
_atom_site_type_symbol 
_atom_site_fract_x 
_atom_site_fract_y 
_atom_site_fract_z 
_atom_site_charge 
N1          N  0.79555692  0.69527866  0.65385901    -0.25800
N2          N  0.79225523  0.65350332  0.67820846    -0.33600
C3          C  0.83660460  0.62968021  0.67740822     0.02600
C4          C  0.86998324  0.65704479  0.65094665     0.08600
C5          C  0.84268495  0.69871677  0.63685399    -0.04500
H6          H  0.84578490  0.59843598  0.70022185     0.09300
H7          H  0.85775466  0.73194867  0.62099158     0.10500
Cu8        Cu  0.73465005  0.63768221  0.72518159     0.44200
Cu9        Cu  0.73833608  0.74995699  0.65500936     0.42000
Cu10       Cu  0.63446284  0.72280111  0.73903761     0.43900
N11         N  0.68731540  0.63754771  0.78538488    -0.33200
N12         N  0.64945707  0.66911026  0.79123659    -0.27400
C13         C  0.63394227  0.66864726  0.83920216    -0.03500
C14         C  0.66419072  0.63572468  0.86471669     0.08700
C15         C  0.69733986  0.61663329  0.82920090     0.02500
H16         H  0.60785845  0.69550068  0.85604892     0.10100
H17         H  0.73034117  0.59433054  0.83635828     0.09200
N18         N  0.63760696  0.78537171  0.69561811    -0.34600
N19         N  0.67503343  0.79643921  0.66616522    -0.26800
C20         C  0.66872702  0.84412389  0.65218216    -0.02000
C21         C  0.62565383  0.86403705  0.67413020     0.06600
C22         C  0.60721935  0.82550758  0.70127166     0.04700
H23         H  0.69657815  0.86483317  0.63275653     0.09800
H24         H  0.57716590  0.82849696  0.72803587     0.08600
N25         N  0.40345660  0.69523611  0.26680010    -0.25800
N26         N  0.37693162  0.65382638  0.27123075    -0.33600
C27         C  0.37210610  0.62886384  0.22607674     0.02600
C28         C  0.39731312  0.65518276  0.19133312     0.08600
C29         C  0.41702376  0.69704062  0.21833246    -0.04500
H30         H  0.34718862  0.59718806  0.21805655     0.09300
H31         H  0.43406158  0.72942630  0.20269758     0.10500
Cu32       Cu  0.33328474  0.64088548  0.33169019     0.44200
Cu33       Cu  0.40541645  0.75382206  0.32283772     0.42000
Cu34       Cu  0.29902080  0.74877097  0.40832689     0.43900
N35         N  0.26872085  0.64379441  0.37215955    -0.33200
N36         N  0.25481815  0.68370164  0.40035254    -0.27400
C37         C  0.20642846  0.67784990  0.41246502    -0.03500
C38         C  0.18927008  0.63258456  0.38983457     0.08700
C39         C  0.22974443  0.61220384  0.36457940     0.02500
H40         H  0.18383252  0.70693960  0.43091035     0.10100
H41         H  0.22942063  0.57962353  0.33824320     0.09200
N42         N  0.34762810  0.81028569  0.40536554    -0.34600
N43         N  0.38718076  0.81161031  0.37613798    -0.26800
C44         C  0.40752119  0.85814638  0.38100093    -0.02000
C45         C  0.37923651  0.88768199  0.41440410     0.06600
C46         C  0.34148679  0.85607605  0.42874701     0.04700
H47         H  0.43760000  0.87092321  0.35819461     0.09800
H48         H  0.30988341  0.86656495  0.45195651     0.08600
N49         N  0.66943107  0.25792782  0.70872119    -0.25800
N50         N  0.69795429  0.25552139  0.66860803    -0.33600
C51         C  0.69934044  0.20793180  0.64894163     0.02600
C52         C  0.66967900  0.17882666  0.67747919     0.08600
C53         C  0.65150629  0.21148028  0.71538034    -0.04500
H54         H  0.72393503  0.19468830  0.61913438     0.09300
H55         H  0.63101249  0.20129629  0.74800838     0.10500
Cu56       Cu  0.74409604  0.31277822  0.65003215     0.44200
Cu57       Cu  0.66657071  0.32217244  0.75767867     0.42000
Cu58       Cu  0.76116670  0.41921971  0.73793451     0.43900
N59         N  0.80242868  0.36241194  0.64676578    -0.33200
N60         N  0.80908694  0.40219747  0.67831165    -0.27400
C61         C  0.85561548  0.42023649  0.67249640    -0.03500
C62         C  0.87932795  0.38955344  0.63639595     0.08700
C63         C  0.84447412  0.35339389  0.62096121     0.02500
H64         H  0.87317337  0.44891357  0.69746067     0.10100
H65         H  0.85107544  0.31970224  0.59723574     0.09200
N66         N  0.71473618  0.41949209  0.80024033    -0.34600
N67         N  0.67944267  0.38554566  0.80643210    -0.26800
C68         C  0.66099336  0.39303089  0.85306523    -0.02000
C69         C  0.68616777  0.43300703  0.87781838     0.06600
C70         C  0.72018603  0.44859234  0.84321069     0.04700
H71         H  0.63573429  0.36731242  0.86992297     0.09800
H72         H  0.74990466  0.47588429  0.85040172     0.08600
N73         N  0.38519719  0.25405654  0.69536696    -0.25800
N74         N  0.34906102  0.25862169  0.66112168    -0.33600
C75         C  0.34189081  0.21394242  0.63559370     0.02600
C76         C  0.37569232  0.17966550  0.65371368     0.08600
C77         C  0.40261968  0.20639305  0.69158021    -0.04500
H78         H  0.31194694  0.20608948  0.60824536     0.09300
H79         H  0.42928285  0.19100521  0.71772194     0.10500
Cu80       Cu  0.30502901  0.32250300  0.65522460     0.44200
Cu81       Cu  0.40092255  0.30942293  0.75289422     0.42000
Cu82       Cu  0.33142710  0.42539747  0.74399977     0.43900
N83         N  0.25890228  0.38503164  0.66483971    -0.33200
N84         N  0.26865206  0.42247439  0.69843697    -0.27400
C85         C  0.22699860  0.44993618  0.70611183    -0.03500
C86         C  0.18946828  0.42938997  0.67507702     0.08700
C87         C  0.21092718  0.38853200  0.64914129     0.02500
H88         H  0.22295741  0.47908064  0.73587058     0.10100
H89         H  0.19137200  0.35974197  0.62596421     0.09200
N90         N  0.37403038  0.40927563  0.80583779    -0.34600
N91         N  0.39877189  0.36666712  0.81047169    -0.26800
C92         C  0.41269683  0.36381089  0.85925333    -0.02000
C93         C  0.39559919  0.40649358  0.88601900     0.06600
C94         C  0.37100718  0.43414658  0.85106696     0.04700
H95         H  0.42929931  0.33091811  0.87492186     0.09800
H96         H  0.34828320  0.46729998  0.85872127     0.08600
N97         N  0.25797001  0.66939195  0.68417987    -0.25800
N98         N  0.26665650  0.70079650  0.64841670    -0.33600
C99         C  0.22409381  0.70799585  0.62204369     0.02600
C100        C  0.18664148  0.67942623  0.64116409     0.08600
C101        C  0.20934917  0.65519602  0.68049097    -0.04500
H102        H  0.21989159  0.73497799  0.59332304     0.09300
H103        H  0.19079058  0.63284747  0.70733199     0.10500
Cu104      Cu  0.33179292  0.74175562  0.64057010     0.44200
Cu105      Cu  0.30999449  0.65563858  0.74244005     0.42000
Cu106      Cu  0.42476787  0.72806331  0.73246127     0.43900
N107        N  0.39127195  0.79170345  0.64933647    -0.33200
N108        N  0.42589594  0.78663688  0.68476170    -0.27400
C109        C  0.45064552  0.83042696  0.69289232    -0.03500
C110        C  0.43085930  0.86488303  0.66085581     0.08700
C111        C  0.39354995  0.83876483  0.63336955     0.02500
H112        H  0.47599076  0.83871606  0.72457207     0.10100
H113        H  0.36505183  0.85511559  0.60986732     0.09200
N114        N  0.40968448  0.68478012  0.79242306    -0.34600
N115        N  0.36785973  0.65907476  0.79764179    -0.26800
C116        C  0.36634343  0.64513058  0.84567256    -0.02000
C117        C  0.40917741  0.66289436  0.87159200     0.06600
C118        C  0.43526772  0.68810987  0.83650257     0.04700
H119        H  0.33380327  0.62887666  0.86217416     0.09800
H120        H  0.46739232  0.71238940  0.84411765     0.08600
N121        N  0.68048864  0.27619659  0.41329009    -0.25800
N122        N  0.64213337  0.27842122  0.38124102    -0.33600
C123        C  0.61518334  0.23583075  0.38194277     0.02600
C124        C  0.63716291  0.20453125  0.41581172     0.08600
C125        C  0.67835744  0.23178191  0.43525388    -0.04500
H126        H  0.58673219  0.22489750  0.35384411     0.09300
H127        H  0.70894151  0.21686234  0.45715436     0.10500
Cu128      Cu  0.63617185  0.32892066  0.32508832     0.44200
Cu129      Cu  0.74215682  0.32564246  0.41353052     0.42000
Cu130      Cu  0.73722729  0.41348626  0.31270789     0.43900
N131        N  0.64223358  0.37329536  0.26410271    -0.33200
N132        N  0.67863866  0.40640389  0.26043443    -0.27400
C133        C  0.67707576  0.42379326  0.21390480    -0.03500
C134        C  0.63823593  0.39992587  0.18676815     0.08700
C135        C  0.61718797  0.36792833  0.21971723     0.02500
H136        H  0.70608690  0.44667634  0.19883599     0.10100
H137        H  0.58923022  0.33922208  0.21052980     0.09200
N138        N  0.79970413  0.40331430  0.35856190    -0.34600
N139        N  0.80231886  0.37224620  0.39567804    -0.26800
C140        C  0.85037557  0.37076754  0.41261731    -0.02000
C141        C  0.87905790  0.40193341  0.38438612     0.06600
C142        C  0.84561386  0.42150574  0.35045674     0.04700
H143        H  0.86424888  0.34532198  0.43997702     0.09800
H144        H  0.85464742  0.44447438  0.31958412     0.08600
O145        O  0.47045454  0.51072737  0.07979708    -0.71400
O146        O  0.59972341  0.58443153  0.06875569    -0.72400
O147        O  0.57163984  0.48431749  0.07413639    -0.61000
O148        O  0.49888183  0.61246372  0.07206298    -0.69400
O149        O  0.48395284  0.60481966  0.15207468    -0.69000
O150        O  0.60016044  0.50163969  0.15104348    -0.60200
O151        O  0.59277720  0.61107033  0.14795656    -0.72800
O152        O  0.49173777  0.49650804  0.15789779    -0.71500
Cu153      Cu  0.53520309  0.54789265  0.07214699     1.04600
Cu154      Cu  0.54265799  0.55433242  0.15686977     1.04300
C155        C  0.46515719  0.48514795  0.11809722     0.94800
C156        C  0.61215240  0.61532108  0.10464662     0.93900
C157        C  0.60215970  0.47523576  0.10906617     0.86000
C158        C  0.47226011  0.62330718  0.10966087     0.92300
N159        N  0.43652809  0.43889118  0.11274633    -0.02000
C160        C  0.43577511  0.40517093  0.14934417     0.00600
C161        C  0.43645258  0.35651015  0.12852992    -0.22300
C162        C  0.43615474  0.35982067  0.07733367    -0.22500
C163        C  0.43470505  0.41046087  0.06789539     0.00500
H164        H  0.43375900  0.32225936  0.14840247     0.14300
H165        H  0.43063925  0.32852281  0.04987078     0.14300
N166        N  0.42469310  0.64766468  0.10129517    -0.02000
C167        C  0.38858917  0.65003740  0.13645893     0.00600
C168        C  0.34152719  0.64867279  0.11421296    -0.22300
C169        C  0.34854865  0.64633299  0.06314184    -0.22500
C170        C  0.39974073  0.64612650  0.05543427     0.00500
H171        H  0.30599478  0.65145081  0.13310178     0.14300
H172        H  0.31938238  0.64959426  0.03462706     0.14300
N173        N  0.63522284  0.43295052  0.10053349    -0.02000
C174        C  0.63510345  0.39429621  0.13144779     0.00600
C175        C  0.64200403  0.34895967  0.10468057    -0.22300
C176        C  0.64757722  0.35998398  0.05526282    -0.22500
C177        C  0.64389155  0.41176691  0.05313139     0.00500
H178        H  0.64667481  0.31238039  0.11998220     0.14300
H179        H  0.65890086  0.33361753  0.02504763     0.14300
N180        N  0.64110443  0.65885057  0.09362168    -0.02000
C181        C  0.64873973  0.69889786  0.12688970     0.00600
C182        C  0.65496665  0.74224402  0.10167222    -0.22300
C183        C  0.65196121  0.72827095  0.05102216    -0.22500
C184        C  0.64364381  0.67672338  0.04639085     0.00500
H185        H  0.66398133  0.77937609  0.11819027     0.14300
H186        H  0.66050876  0.75225915  0.02077568     0.14300
O187        O  0.56434259  0.60574429  0.98707235    -0.71400
O188        O  0.49785198  0.47314803  0.99841663    -0.72400
O189        O  0.59631428  0.50591440  0.99181358    -0.61000
O190        O  0.46447616  0.57224508  0.99290976    -0.69400
O191        O  0.47337344  0.58387161  0.91253059    -0.69000
O192        O  0.58303091  0.47390777  0.91483417    -0.60200
O193        O  0.47376540  0.47487569  0.91916692    -0.72800
O194        O  0.58242452  0.58220237  0.90907915    -0.71500
Cu195      Cu  0.53076458  0.53934560  0.99405882     1.04600
Cu196      Cu  0.52757840  0.52809858  0.90928323     1.04300
C197        C  0.59149248  0.61028555  0.94921931     0.94800
C198        C  0.46908941  0.45731780  0.96283952     0.93900
C199        C  0.60811304  0.47471228  0.95657412     0.86000
C200        C  0.45233501  0.59574491  0.95469956     0.92300
N201        N  0.42721552  0.42612850  0.97439771    -0.02000
C202        C  0.39005540  0.41294623  0.94087758     0.00600
C203        C  0.34610628  0.40416861  0.96514805    -0.22300
C204        C  0.35673209  0.41149545  0.01586865    -0.22500
C205        C  0.40698962  0.42448294  0.02127215     0.00500
H206        H  0.31085908  0.39153813  0.94798600     0.14300
H207        H  0.33184130  0.40278121  0.04584699     0.14300
N208        N  0.42203218  0.64040027  0.96215432    -0.02000
C209        C  0.41362784  0.67414981  0.92654839     0.00600
C210        C  0.40587505  0.72157939  0.94870029    -0.22300
C211        C  0.40880658  0.71701228  0.99987726    -0.22500
C212        C  0.41825837  0.66685553  0.00790619     0.00500
H213        H  0.39647434  0.75533779  0.92971307     0.14300
H214        H  0.39953554  0.74617004  0.02829191     0.14300
N215        N  0.65117454  0.44344843  0.96483235    -0.02000
C216        C  0.69036566  0.44131682  0.93312431     0.00600
C217        C  0.73464270  0.43483103  0.95959012    -0.22300
C218        C  0.72224880  0.43197392  0.00932189    -0.22500
C219        C  0.67069223  0.43684274  0.01212456     0.00500
H220        H  0.77130404  0.42802458  0.94390007     0.14300
H221        H  0.74744746  0.42123849  0.03925406     0.14300
N222        N  0.63712088  0.63954253  0.95528682    -0.02000
C223        C  0.67306494  0.63698555  0.91978832     0.00600
C224        C  0.72021329  0.64119934  0.94170931    -0.22300
C225        C  0.71347253  0.64775175  0.99262510    -0.22500
C226        C  0.66237684  0.64743587  0.00067570     0.00500
H227        H  0.75555169  0.64270869  0.92256826     0.14300
H228        H  0.74258374  0.65746849  0.02044469     0.14300
O229        O  0.48344067  0.15817789  0.49695864    -0.71400
O230        O  0.57768578  0.14644766  0.62119976    -0.72400
O231        O  0.59151442  0.15889094  0.51274379    -0.61000
O232        O  0.46905333  0.14788123  0.60472175    -0.69400
O233        O  0.48819530  0.06786830  0.60797677    -0.69000
O234        O  0.56790661  0.08278770  0.48677794    -0.60200
O235        O  0.58946352  0.07007497  0.58824677    -0.72800
O236        O  0.46555993  0.07879722  0.50603732    -0.71500
Cu237      Cu  0.53030219  0.15755292  0.56008934     1.04600
Cu238      Cu  0.52794007  0.07327574  0.54713916     1.04300
C239        C  0.46071549  0.11742516  0.48103099     0.94800
C240        C  0.59911230  0.10326795  0.62263624     0.93900
C241        C  0.59713004  0.11952697  0.48312940     0.86000
C242        C  0.45946581  0.10400664  0.62003109     0.92300
N243        N  0.43820342  0.11154616  0.43103035    -0.02000
C244        C  0.44476469  0.14554616  0.39563031     0.00600
C245        C  0.44347657  0.12228105  0.34783290    -0.22300
C246        C  0.43494937  0.07207874  0.35363347    -0.22500
C247        C  0.43155217  0.06593432  0.40476790     0.00500
H248        H  0.44432309  0.14040435  0.31243294     0.14300
H249        H  0.42682472  0.04392259  0.32351002     0.14300
N250        N  0.63372841  0.11539863  0.44387565    -0.02000
C251        C  0.63698417  0.14921404  0.40775688     0.00600
C252        C  0.65030294  0.12569265  0.36233751    -0.22300
C253        C  0.65626777  0.07566038  0.37051434    -0.22500
C254        C  0.64660642  0.06977361  0.42077667     0.00500
H255        H  0.65854997  0.14364430  0.32792312     0.14300
H256        H  0.67155125  0.04751564  0.34403489     0.14300
N257        N  0.41259980  0.09245130  0.64271678    -0.02000
C258        C  0.37291285  0.12426476  0.64561203     0.00600
C259        C  0.32872059  0.09742484  0.64644001    -0.22300
C260        C  0.34163323  0.04725573  0.64474755    -0.22500
C261        C  0.39333126  0.04466441  0.64234920     0.00500
H262        H  0.29141348  0.11269974  0.65115829     0.14300
H263        H  0.31634510  0.01618686  0.64970433     0.14300
N264        N  0.63580824  0.09147177  0.66056717    -0.02000
C265        C  0.67201062  0.12378702  0.67813576     0.00600
C266        C  0.71241663  0.09809004  0.69675908    -0.22300
C267        C  0.70026884  0.04781383  0.69134198    -0.22500
C268        C  0.65257093  0.04395430  0.66963804     0.00500
H269        H  0.74626803  0.11421879  0.71400885     0.14300
H270        H  0.72184024  0.01750492  0.70649780     0.14300
O271        O  0.58619652  0.91187886  0.57645695    -0.71400
O272        O  0.47527135  0.91823865  0.46600727    -0.72400
O273        O  0.58637875  0.92298735  0.46748865    -0.61000
O274        O  0.47784490  0.90902748  0.57475293    -0.69400
O275        O  0.45889149  0.98783693  0.56298122    -0.69000
O276        O  0.59126905  0.99918908  0.50274528    -0.60200
O277        O  0.49410047  0.99835447  0.46512272    -0.72800
O278        O  0.55797651  0.98714760  0.59865376    -0.71500
Cu279      Cu  0.53145589  0.91081843  0.51978856     1.04600
Cu280      Cu  0.52555661  0.99482612  0.53231351     1.04300
C281        C  0.58724654  0.95114781  0.60692660     0.94800
C282        C  0.46641714  0.96200679  0.44985055     0.93900
C283        C  0.60757101  0.96646758  0.47139645     0.86000
C284        C  0.45296660  0.94908777  0.58749842     0.92300
N285        N  0.42050581  0.97366674  0.42349265    -0.02000
C286        C  0.37937211  0.94339362  0.42053849     0.00600
C287        C  0.33625964  0.97192009  0.41786404    -0.22300
C288        C  0.35110456  0.02144475  0.41837857    -0.22500
C289        C  0.40283301  0.02198578  0.42196548     0.00500
H290        H  0.29824932  0.95806170  0.41294411     0.14300
H291        H  0.32698064  0.05335552  0.41240415     0.14300
N292        N  0.65209858  0.97884945  0.44501345    -0.02000
C293        C  0.69201311  0.94765899  0.44389690     0.00600
C294        C  0.73619874  0.97453655  0.44617383    -0.22300
C295        C  0.72295219  0.02455831  0.44750305    -0.22500
C296        C  0.67103050  0.02685864  0.44606262     0.00500
H297        H  0.77374639  0.95948700  0.44298885     0.14300
H298        H  0.74844206  0.05566866  0.44345765     0.14300
N299        N  0.42726606  0.95441220  0.63492453    -0.02000
C300        C  0.43198284  0.92004793  0.67054615     0.00600
C301        C  0.42908240  0.94290408  0.71834160    -0.22300
C302        C  0.42149328  0.99320446  0.71237447    -0.22500
C303        C  0.42021210  0.99985248  0.66114918     0.00500
H304        H  0.42875545  0.92449814  0.75359920     0.14300
H305        H  0.41286117  0.02124039  0.74210362     0.14300
N306        N  0.61768855  0.95501956  0.65247135    -0.02000
C307        C  0.61564130  0.91818329  0.68565630     0.00600
C308        C  0.61308164  0.93860893  0.73438471    -0.22300
C309        C  0.61569781  0.98982657  0.73161155    -0.22500
C310        C  0.62045621  0.99965970  0.68125683     0.00500
H311        H  0.61416409  0.91839509  0.76857789     0.14300
H312        H  0.62124353  0.01655980  0.76354530     0.14300
N313        N  0.69180784  0.68401086  0.25623529    -0.25800
N314        N  0.66260718  0.72402358  0.26236117    -0.33600
C315        C  0.64022230  0.73312943  0.21803453     0.02600
C316        C  0.65506770  0.69673600  0.18219794     0.08600
C317        C  0.68776321  0.66609318  0.20772536    -0.04500
H318        H  0.61747966  0.76588484  0.21158353     0.09300
H319        H  0.71051830  0.63606751  0.19115508     0.10500
Cu320      Cu  0.66069132  0.77076923  0.32755726     0.44200
Cu321      Cu  0.74387588  0.66295813  0.31145177     0.42000
Cu322      Cu  0.75189340  0.74775318  0.42328939     0.43900
N323        N  0.67626969  0.82137302  0.38811627    -0.33200
N324        N  0.71172572  0.81362290  0.42214074    -0.25400
C325        C  0.72088045  0.85676065  0.44967105    -0.03500
C326        C  0.68874379  0.89305790  0.43284985     0.08700
C327        C  0.66094835  0.86944209  0.39388313     0.02500
H328        H  0.75085538  0.86208219  0.47745588     0.10100
H329        H  0.63529353  0.88719971  0.36836846     0.09200
N330        N  0.80044708  0.68883614  0.40955216    -0.34600
N331        N  0.79934306  0.65868466  0.36821574    -0.26800
C332        C  0.84400837  0.63525277  0.36442696    -0.02000
C333        C  0.87446583  0.65152269  0.40515320     0.06600
C334        C  0.84524348  0.68529569  0.43282962     0.04700
H335        H  0.85614517  0.61424730  0.33076916     0.09800
H336        H  0.85844437  0.71154075  0.46283951     0.08600
O337        O  0.15006800  0.59122488  0.58091843    -0.71400
O338        O  0.15402779  0.46848936  0.48093223    -0.72400
O339        O  0.15155438  0.57593390  0.47258836    -0.61000
O340        O  0.15223092  0.48357410  0.58968212    -0.69400
O341        O  0.07469961  0.46577950  0.56608789    -0.69000
O342        O  0.07272838  0.59033137  0.49058544    -0.60200
O343        O  0.07548121  0.48645467  0.46376506    -0.72800
O344        O  0.07213329  0.56966577  0.59330227    -0.71500
Cu345      Cu  0.15659879  0.52991314  0.53126474     1.04600
Cu346      Cu  0.07212828  0.52802118  0.52842756     1.04300
C347        C  0.10800266  0.60000232  0.60234337     0.94800
C348        C  0.11303894  0.45831129  0.45629759     0.93900
C349        C  0.10950334  0.59696419  0.46257550     0.86000
C350        C  0.11098188  0.46028538  0.59636351     0.92300
N351        N  0.10616190  0.41135960  0.42697613    -0.02000
C352        C  0.14218512  0.37533486  0.42380637     0.00600
C353        C  0.12095265  0.32802228  0.42046562    -0.22300
C354        C  0.06995766  0.33494678  0.42024945    -0.22500
C355        C  0.06105473  0.38637587  0.42342449     0.00500
H356        H  0.14035449  0.29242572  0.41522770     0.14300
H357        H  0.04229436  0.30563398  0.41227960     0.14300
N358        N  0.10061122  0.61946669  0.41521029    -0.02000
C359        C  0.13648942  0.61855743  0.37993015     0.00600
C360        C  0.11613701  0.60876110  0.33239197    -0.22300
C361        C  0.06531552  0.60514708  0.33832422    -0.22500
C362        C  0.05594006  0.61318513  0.38932455     0.00500
H363        H  0.13559040  0.60832246  0.29702512     0.14300
H364        H  0.03763361  0.60408459  0.30794686     0.14300
N365        N  0.10212086  0.43542935  0.64206424    -0.02000
C366        C  0.13547689  0.43694587  0.68095808     0.00600
C367        C  0.11151152  0.43480431  0.72623084    -0.22300
C368        C  0.06117498  0.43099998  0.71462179    -0.22500
C369        C  0.05595079  0.43102297  0.66262568     0.00500
H370        H  0.12887700  0.43164472  0.76305262     0.14300
H371        H  0.03208927  0.42282333  0.74077864     0.14300
N372        N  0.09788284  0.64782584  0.62860027    -0.02000
C373        C  0.13235820  0.68542791  0.63115774     0.00600
C374        C  0.10973954  0.73144813  0.62617338    -0.22300
C375        C  0.05919759  0.72229661  0.62204043    -0.22500
C376        C  0.05202870  0.67088135  0.62487455     0.00500
H377        H  0.12772553  0.76800340  0.62855075     0.14300
H378        H  0.03030645  0.75089788  0.62356570     0.14300
O379        O  0.99073537  0.59380975  0.55862766    -0.71400
O380        O  0.99448208  0.45580692  0.49222216    -0.72400
O381        O  0.99286969  0.55404647  0.45845940    -0.61000
O382        O  0.99221977  0.49562734  0.59274284    -0.69400
O383        O  0.91467623  0.47150219  0.57680670    -0.69000
O384        O  0.91399896  0.57491839  0.46850095    -0.60200
O385        O  0.91627156  0.46623350  0.46807779    -0.72800
O386        O  0.91230880  0.58128650  0.57769862    -0.71500
Cu387      Cu  0.99417792  0.52486105  0.52564298     1.04600
Cu388      Cu  0.90972056  0.52337562  0.52276784     1.04300
C389        C  0.95330604  0.60623876  0.58480297     0.94800
C390        C  0.95835479  0.44331525  0.46273550     0.93900
C391        C  0.95574639  0.58043236  0.44626038     0.86000
C392        C  0.95625075  0.46672923  0.60118840     0.92300
N393        N  0.96803564  0.41033034  0.41895196    -0.02000
C394        C  0.93429407  0.40255299  0.38031270     0.00600
C395        C  0.95840394  0.39401782  0.33523748    -0.22300
C396        C  0.00884706  0.39536454  0.34632182    -0.22500
C397        C  0.01451260  0.40496011  0.39791611     0.00500
H398        H  0.94114697  0.38545558  0.29854592     0.14300
H399        H  0.03831002  0.38544066  0.32014203     0.14300
N400        N  0.96360967  0.62079764  0.41330804    -0.02000
C401        C  0.92921707  0.65641808  0.40287422     0.00600
C402        C  0.95208777  0.69894179  0.38686737    -0.22300
C403        C  0.00254360  0.68936985  0.38701685    -0.22500
C404        C  0.00921815  0.64118860  0.40308448     0.00500
H405        H  0.93382159  0.73256317  0.37459664     0.14300
H406        H  0.03111321  0.71335768  0.37274370     0.14300
N407        N  0.96600632  0.42374479  0.63058956    -0.02000
C408        C  0.93379329  0.38456836  0.63138431     0.00600
C409        C  0.95914664  0.34000903  0.63704510    -0.22300
C410        C  0.00908044  0.35222858  0.64089340    -0.22500
C411        C  0.01273383  0.40384600  0.63736241     0.00500
H412        H  0.94292476  0.30340435  0.64216527     0.14300
H413        H  0.03900430  0.32705912  0.65109702     0.14300
N414        N  0.96018714  0.64319578  0.62635589    -0.02000
C415        C  0.92456196  0.65655884  0.66030684     0.00600
C416        C  0.94617317  0.67466711  0.70521987    -0.22300
C417        C  0.99703484  0.67306041  0.69881674    -0.22500
C418        C  0.00541810  0.65442117  0.64989610     0.00500
H419        H  0.92693427  0.68992640  0.73816792     0.14300
H420        H  0.02484472  0.68928620  0.72517803     0.14300
N421        N  0.38196637  0.41219624  0.27302130    -0.25800
N422        N  0.42493419  0.38911397  0.28134433    -0.33600
C423        C  0.45370389  0.39097113  0.24061731     0.02600
C424        C  0.42834436  0.41629532  0.20396364     0.08600
C425        C  0.38272268  0.42921069  0.22601445    -0.04500
H426        H  0.48743142  0.36887506  0.23513626     0.09300
H427        H  0.35014502  0.44364950  0.20677143     0.10500
Cu428      Cu  0.43695350  0.34063909  0.33836325     0.44200
Cu429      Cu  0.32144629  0.40822927  0.32311419     0.42000
Cu430      Cu  0.34193062  0.32204460  0.42622627     0.43900
N431        N  0.43613306  0.27936281  0.38276730    -0.33200
N432        N  0.40170633  0.27299255  0.41680882    -0.27400
C433        C  0.40458557  0.22556230  0.43169376    -0.03500
C434        C  0.44199984  0.20059673  0.40495952     0.08700
C435        C  0.46118245  0.23595868  0.37434301     0.02500
H436        H  0.37672405  0.20838819  0.45426863     0.10100
H437        H  0.48696732  0.22889537  0.34383732     0.09200
N438        N  0.27690771  0.36306827  0.41566826    -0.34600
N439        N  0.26849469  0.39382185  0.37894130    -0.26800
C440        C  0.21973838  0.40760654  0.38001369    -0.02000
C441        C  0.19660377  0.38405272  0.41874211     0.06600
C442        C  0.23407876  0.35604345  0.44010392     0.04700
H443        H  0.20129687  0.42891699  0.35156678     0.09800
H444        H  0.22952249  0.32895173  0.46851216     0.08600
loop_ 
_geom_bond_atom_site_label_1 
_geom_bond_atom_site_label_2 
_geom_bond_distance 
_geom_bond_site_symmetry_2 
_ccdc_geom_bond_type 
N1            N2   1.322       .  A
N1            C5   1.350       .  A
N1           Cu9   2.108       .  S
N2            C3   1.343       .  A
N2           Cu8   2.058       .  S
C3            C4   1.379       .  A
C3            H6   1.082       .  S
C4            C5   1.392       .  A
C4          C415   1.473       .  S
C5            H7   1.082       .  S
Cu8          N11   2.058       .  S
Cu9          N19   2.109       .  S
Cu10         N12   2.082       .  S
Cu10         N18   2.082       .  S
N11          N12   1.319       .  A
N11          C15   1.342       .  A
N12          C13   1.349       .  A
C13          C14   1.388       .  A
C13          H16   1.082       .  S
C14          C15   1.382       .  A
C14         C223   1.477       .  S
C15          H17   1.082       .  S
N18          N19   1.325       .  A
N18          C22   1.344       .  A
N19          C20   1.352       .  A
C20          C21   1.390       .  A
C20          H23   1.082       .  S
C21          C22   1.383       .  A
C21         C307   1.480       .  S
C22          H24   1.082       .  S
N25          N26   1.322       .  A
N25          C29   1.348       .  A
N25         Cu33   2.092       .  S
N26          C27   1.341       .  A
N26         Cu32   2.048       .  S
C27          C28   1.377       .  A
C27          H30   1.082       .  S
C28          C29   1.387       .  A
C28         C167   1.471       .  S
C29          H31   1.082       .  S
Cu32         N35   2.048       .  S
Cu33         N43   2.093       .  S
Cu34         N36   2.093       .  S
Cu34         N42   2.094       .  S
N35          N36   1.321       .  A
N35          C39   1.342       .  A
N36          C37   1.348       .  A
C37          C38   1.388       .  A
C37          H40   1.082       .  S
C38          C39   1.378       .  A
C38         C359   1.472       .  S
C39          H41   1.082       .  S
N42          N43   1.325       .  A
N42          C46   1.346       .  A
N43          C44   1.350       .  A
C44          C45   1.386       .  A
C44          H47   1.082       .  S
C45          C46   1.385       .  A
C45         C286   1.481       .  S
C46          H48   1.082       .  S
N49          N50   1.321       .  A
N49          C53   1.347       .  A
N49         Cu57   2.089       .  S
N50          C51   1.342       .  A
N50         Cu56   2.047       .  S
C51          C52   1.376       .  A
C51          H54   1.082       .  S
C52          C53   1.386       .  A
C52         C265   1.466       .  S
C53          H55   1.082       .  S
Cu56         N59   2.048       .  S
Cu57         N67   2.089       .  S
Cu58         N60   2.085       .  S
Cu58         N66   2.087       .  S
N59          N60   1.321       .  A
N59          C63   1.341       .  A
N60          C61   1.346       .  A
C61          C62   1.386       .  A
C61          H64   1.082       .  S
C62          C63   1.377       .  A
C62         C408   1.468       .  S
C63          H65   1.082       .  S
N66          N67   1.324       .  A
N66          C70   1.347       .  A
N67          C68   1.347       .  A
C68          C69   1.384       .  A
C68          H71   1.082       .  S
C69          C70   1.386       .  A
C69         C216   1.476       .  S
C70          H72   1.082       .  S
N73          N74   1.323       .  A
N73          C77   1.349       .  A
N73         Cu81   2.096       .  S
N74          C75   1.345       .  A
N74         Cu80   2.078       .  S
C75          C76   1.382       .  A
C75          H78   1.082       .  S
C76          C77   1.387       .  A
C76         C258   1.478       .  S
C77          H79   1.082       .  S
Cu80         N83   2.076       .  S
Cu81         N91   2.096       .  S
Cu82         N84   2.047       .  S
Cu82         N90   2.046       .  S
N83          N84   1.321       .  A
N83          C87   1.344       .  A
N84          C85   1.343       .  A
C85          C86   1.377       .  A
C85          H88   1.082       .  S
C86          C87   1.383       .  A
C86         C366   1.465       .  S
C87          H89   1.082       .  S
N90          N91   1.322       .  A
N90          C94   1.342       .  A
N91          C92   1.348       .  A
C92          C93   1.386       .  A
C92          H95   1.082       .  S
C93          C94   1.375       .  A
C93         C202   1.468       .  S
C94          H96   1.082       .  S
N97          N98   1.325       .  A
N97         C101   1.352       .  A
N97        Cu105   2.107       .  S
N98          C99   1.343       .  A
N98        Cu104   2.072       .  S
C99         C100   1.378       .  A
C99         H102   1.082       .  S
C100        C101   1.389       .  A
C100        C373   1.478       .  S
C101        H103   1.082       .  S
Cu104       N107   2.071       .  S
Cu105       N115   2.107       .  S
Cu106       N108   2.066       .  S
Cu106       N114   2.065       .  S
N107        N108   1.319       .  A
N107        C111   1.347       .  A
N108        C109   1.343       .  A
C109        C110   1.385       .  A
C109        H112   1.082       .  S
C110        C111   1.386       .  A
C110        C300   1.475       .  S
C111        H113   1.082       .  S
N114        N115   1.323       .  A
N114        C118   1.343       .  A
N115        C116   1.351       .  A
C116        C117   1.391       .  A
C116        H119   1.082       .  S
C117        C118   1.379       .  A
C117        C209   1.476       .  S
C118        H120   1.082       .  S
N121        N122   1.322       .  A
N121        C125   1.349       .  A
N121       Cu129   2.106       .  S
N122        C123   1.343       .  A
N122       Cu128   2.069       .  S
C123        C124   1.383       .  A
C123        H126   1.082       .  S
C124        C125   1.391       .  A
C124        C251   1.474       .  S
C125        H127   1.082       .  S
Cu128       N131   2.069       .  S
Cu129       N139   2.107       .  S
Cu130       N132   2.072       .  S
Cu130       N138   2.073       .  S
N131        N132   1.320       .  A
N131        C135   1.345       .  A
N132        C133   1.345       .  A
C133        C134   1.384       .  A
C133        H136   1.082       .  S
C134        C135   1.383       .  A
C134        C174   1.470       .  S
C135        H137   1.082       .  S
N138        N139   1.324       .  A
N138        C142   1.343       .  A
N139        C140   1.352       .  A
C140        C141   1.390       .  A
C140        H143   1.082       .  S
C141        C142   1.380       .  A
C141        C394   1.481       .  S
C142        H144   1.082       .  S
O145       Cu153   2.011       .  S
O145        C155   1.267       .  A
O146       Cu153   1.984       .  S
O146        C156   1.261       .  A
O147       Cu153   1.954       .  S
O147        C157   1.257       .  A
O148       Cu153   1.972       .  S
O148        C158   1.257       .  A
O149       Cu154   2.070       .  S
O149        C158   1.289       .  A
O150       Cu154   2.080       .  S
O150        C157   1.285       .  A
O151       Cu154   2.044       .  S
O151        C156   1.282       .  A
O152       Cu154   2.054       .  S
O152        C155   1.283       .  A
Cu153      Cu154   2.253       .  S
C155        N159   1.447       .  S
C156        N180   1.439       .  S
C157        N173   1.440       .  S
C158        N166   1.445       .  S
N159        C163   1.374       .  A
N159        C160   1.361       .  A
C160        C161   1.378       .  A
C160        C424   1.482       .  S
C161        C162   1.368       .  A
C161        H164   1.082       .  S
C162        C163   1.385       .  A
C162        H165   1.083       .  S
C163        C205   1.496       .  S
N166        C170   1.376       .  A
N166        C167   1.355       .  A
C167        C168   1.377       .  A
C168        C169   1.372       .  A
C168        H171   1.082       .  S
C169        C170   1.386       .  A
C169        H172   1.083       .  S
C170        C212   1.500       .  S
N173        C177   1.374       .  A
N173        C174   1.353       .  A
C174        C175   1.378       .  A
C175        C176   1.373       .  A
C175        H178   1.082       .  S
C176        C177   1.385       .  A
C176        H179   1.083       .  S
C177        C219   1.503       .  S
N180        C184   1.371       .  A
N180        C181   1.357       .  A
C181        C182   1.379       .  A
C181        C316   1.481       .  S
C182        C183   1.376       .  A
C182        H185   1.082       .  S
C183        C184   1.387       .  A
C183        H186   1.083       .  S
C184        C226   1.499       .  S
O187       Cu195   2.000       .  S
O187        C197   1.263       .  A
O188       Cu195   1.978       .  S
O188        C198   1.259       .  A
O189       Cu195   1.963       .  S
O189        C199   1.259       .  A
O190       Cu195   1.974       .  S
O190        C200   1.260       .  A
O191       Cu196   2.072       .  S
O191        C200   1.286       .  A
O192       Cu196   2.075       .  S
O192        C199   1.283       .  A
O193       Cu196   2.048       .  S
O193        C198   1.284       .  A
O194       Cu196   2.053       .  S
O194        C197   1.285       .  A
Cu195      Cu196   2.255       .  S
C197        N222   1.446       .  S
C198        N201   1.440       .  S
C199        N215   1.439       .  S
C200        N208   1.443       .  S
N201        C205   1.370   1_556  A
N201        C202   1.352       .  A
C202        C203   1.376       .  A
C203        C204   1.375   1_556  A
C203        H206   1.082       .  S
C204        C205   1.388       .  A
C204        H207   1.083       .  S
N208        C212   1.374   1_556  A
N208        C209   1.357       .  A
C209        C210   1.378       .  A
C210        C211   1.373       .  A
C210        H213   1.082       .  S
C211        C212   1.386   1_556  A
C211        H214   1.083   1_556  S
N215        C219   1.372   1_556  A
N215        C216   1.355       .  A
C216        C217   1.379       .  A
C217        C218   1.375   1_556  A
C217        H220   1.082       .  S
C218        C219   1.385       .  A
C218        H221   1.083       .  S
N222        C226   1.376   1_556  A
N222        C223   1.358       .  A
C223        C224   1.378       .  A
C224        C225   1.370       .  A
C224        H227   1.082       .  S
C225        C226   1.385   1_556  A
C225        H228   1.083   1_556  S
O229       Cu237   2.074       .  S
O229        C239   1.288       .  A
O230       Cu237   2.074       .  S
O230        C240   1.285       .  A
O231       Cu237   2.083       .  S
O231        C241   1.283       .  A
O232       Cu237   2.063       .  S
O232        C242   1.285       .  A
O233       Cu238   1.963       .  S
O233        C242   1.260       .  A
O234       Cu238   1.972       .  S
O234        C241   1.260       .  A
O235       Cu238   1.959       .  S
O235        C240   1.256       .  A
O236       Cu238   1.983       .  S
O236        C239   1.261       .  A
Cu237      Cu238   2.249       .  S
C239        N243   1.448       .  S
C240        N264   1.439       .  S
C241        N250   1.443       .  S
C242        N257   1.440       .  S
N243        C247   1.374       .  A
N243        C244   1.356       .  A
C244        C245   1.380       .  A
C244        C434   1.473       .  S
C245        C246   1.372       .  A
C245        H248   1.082       .  S
C246        C247   1.383       .  A
C246        H249   1.083       .  S
C247        C289   1.496       .  S
N250        C254   1.374       .  A
N250        C251   1.357       .  A
C251        C252   1.380       .  A
C252        C253   1.370       .  A
C252        H255   1.083       .  S
C253        C254   1.383       .  A
C253        H256   1.083       .  S
C254        C296   1.501       .  S
N257        C261   1.370       .  A
N257        C258   1.356       .  A
C258        C259   1.380       .  A
C259        C260   1.377       .  A
C259        H262   1.082       .  S
C260        C261   1.384       .  A
C260        H263   1.083       .  S
C261        C303   1.497   1_545  S
N264        C268   1.374       .  A
N264        C265   1.351       .  A
C265        C266   1.376       .  A
C266        C267   1.375       .  A
C266        H269   1.082       .  S
C267        C268   1.389       .  A
C267        H270   1.083       .  S
C268        C310   1.507   1_545  S
O271       Cu279   2.077       .  S
O271        C281   1.284       .  A
O272       Cu279   2.069       .  S
O272        C282   1.284       .  A
O273       Cu279   2.078       .  S
O273        C283   1.285       .  A
O274       Cu279   2.067       .  S
O274        C284   1.288       .  A
O275       Cu280   1.985       .  S
O275        C284   1.263       .  A
O276       Cu280   1.942       .  S
O276        C283   1.253       .  A
O277       Cu280   1.965       .  S
O277        C282   1.260       .  A
O278       Cu280   1.970       .  S
O278        C281   1.262       .  A
Cu279      Cu280   2.246       .  S
C281        N306   1.443       .  S
C282        N285   1.442       .  S
C283        N292   1.440       .  S
C284        N299   1.447       .  S
N285        C289   1.372   1_565  A
N285        C286   1.360       .  A
C286        C287   1.381       .  A
C287        C288   1.375   1_565  A
C287        H290   1.082       .  S
C288        C289   1.382       .  A
C288        H291   1.083       .  S
N292        C296   1.372   1_565  A
N292        C293   1.350       .  A
C293        C294   1.378       .  A
C293        C326   1.467       .  S
C294        C295   1.375   1_565  A
C294        H297   1.082       .  S
C295        C296   1.387       .  A
C295        H298   1.083       .  S
N299        C303   1.374       .  A
N299        C300   1.358       .  A
C300        C301   1.379       .  A
C301        C302   1.371       .  A
C301        H304   1.082       .  S
C302        C303   1.383       .  A
C302        H305   1.083   1_565  S
N306        C310   1.376       .  A
N306        C307   1.358       .  A
C307        C308   1.378       .  A
C308        C309   1.370       .  A
C308        H311   1.082       .  S
C309        C310   1.387       .  A
C309        H312   1.083   1_565  S
N313        N314   1.323       .  A
N313        C317   1.350       .  A
N313       Cu321   2.101       .  S
N314        C315   1.345       .  A
N314       Cu320   2.074       .  S
C315        C316   1.382       .  A
C315        H318   1.082       .  S
C316        C317   1.388       .  A
C317        H319   1.082       .  S
Cu320       N323   2.073       .  S
Cu321       N331   2.101       .  S
Cu322       N324   2.055       .  S
Cu322       N330   2.054       .  S
N323        N324   1.321       .  A
N323        C327   1.343       .  A
N324        C325   1.344       .  A
C325        C326   1.379       .  A
C325        H328   1.082       .  S
C326        C327   1.382       .  A
C327        H329   1.082       .  S
N330        N331   1.322       .  A
N330        C334   1.341       .  A
N331        C332   1.348       .  A
C332        C333   1.389       .  A
C332        H335   1.082       .  S
C333        C334   1.379       .  A
C333        C401   1.470       .  S
C334        H336   1.082       .  S
O337       Cu345   2.047       .  S
O337        C347   1.284       .  A
O338       Cu345   2.051       .  S
O338        C348   1.284       .  A
O339       Cu345   2.040       .  S
O339        C349   1.284       .  A
O340       Cu345   2.043       .  S
O340        C350   1.284       .  A
O341       Cu346   1.984       .  S
O341        C350   1.261       .  A
O342       Cu346   1.988       .  S
O342        C349   1.262       .  A
O343       Cu346   1.992       .  S
O343        C348   1.263       .  A
O344       Cu346   1.994       .  S
O344        C347   1.262       .  A
Cu345      Cu346   2.255       .  S
C347        N372   1.443       .  S
C348        N351   1.443       .  S
C349        N358   1.441       .  S
C350        N365   1.440       .  S
N351        C355   1.374       .  A
N351        C352   1.358       .  A
C352        C353   1.377       .  A
C352        C441   1.481       .  S
C353        C354   1.373       .  A
C353        H356   1.082       .  S
C354        C355   1.386       .  A
C354        H357   1.083       .  S
C355        C397   1.501       .  S
N358        C362   1.370       .  A
N358        C359   1.353       .  A
C359        C360   1.376       .  A
C360        C361   1.373       .  A
C360        H363   1.082       .  S
C361        C362   1.388       .  A
C361        H364   1.083       .  S
C362        C404   1.493       .  S
N365        C369   1.366       .  A
N365        C366   1.350       .  A
C366        C367   1.378       .  A
C367        C368   1.375       .  A
C367        H370   1.082       .  S
C368        C369   1.386       .  A
C368        H371   1.083       .  S
C369        C411   1.489       .  S
N372        C376   1.373       .  A
N372        C373   1.357       .  A
C373        C374   1.377       .  A
C374        C375   1.372       .  A
C374        H377   1.082       .  S
C375        C376   1.387       .  A
C375        H378   1.083       .  S
C376        C418   1.499       .  S
O379       Cu387   1.989       .  S
O379        C389   1.262       .  A
O380       Cu387   1.993       .  S
O380        C390   1.263       .  A
O381       Cu387   1.988       .  S
O381        C391   1.262       .  A
O382       Cu387   1.988       .  S
O382        C392   1.261       .  A
O383       Cu388   2.051       .  S
O383        C392   1.284       .  A
O384       Cu388   2.052       .  S
O384        C391   1.284       .  A
O385       Cu388   2.051       .  S
O385        C390   1.284       .  A
O386       Cu388   2.060       .  S
O386        C389   1.285       .  A
Cu387      Cu388   2.254       .  S
C389        N414   1.444       .  S
C390        N393   1.443       .  S
C391        N400   1.442       .  S
C392        N407   1.443       .  S
N393        C397   1.375   1_655  A
N393        C394   1.359       .  A
C394        C395   1.378       .  A
C395        C396   1.373   1_655  A
C395        H398   1.082       .  S
C396        C397   1.385       .  A
C396        H399   1.083       .  S
N400        C404   1.371   1_655  A
N400        C401   1.356       .  A
C401        C402   1.378       .  A
C402        C403   1.371   1_655  A
C402        H405   1.082       .  S
C403        C404   1.385       .  A
C403        H406   1.083       .  S
N407        C411   1.368   1_655  A
N407        C408   1.352       .  A
C408        C409   1.379       .  A
C409        C410   1.372   1_655  A
C409        H412   1.082       .  S
C410        C411   1.385       .  A
C410        H413   1.083       .  S
N414        C418   1.373   1_655  A
N414        C415   1.357       .  A
C415        C416   1.377       .  A
C416        C417   1.372       .  A
C416        H419   1.082       .  S
C417        C418   1.387   1_655  A
C417        H420   1.083   1_655  S
N421        N422   1.322       .  A
N421        C425   1.354       .  A
N421       Cu429   2.120       .  S
N422        C423   1.343       .  A
N422       Cu428   2.066       .  S
C423        C424   1.382       .  A
C423        H426   1.083       .  S
C424        C425   1.396       .  A
C425        H427   1.082       .  S
Cu428       N431   2.067       .  S
Cu429       N439   2.120       .  S
Cu430       N432   2.071       .  S
Cu430       N438   2.073       .  S
N431        N432   1.320       .  A
N431        C435   1.344       .  A
N432        C433   1.346       .  A
C433        C434   1.384       .  A
C433        H436   1.082       .  S
C434        C435   1.384       .  A
C435        H437   1.082       .  S
N438        N439   1.325       .  A
N438        C442   1.344       .  A
N439        C440   1.352       .  A
C440        C441   1.390       .  A
C440        H443   1.082       .  S
C441        C442   1.380       .  A
C442        H444   1.082       .  S
