geometry optimzed in LAMMPS
_audit_creation_date              2020-12-01 
_audit_creation_method            'lammps2cif' 
_symmetry_space_group_name_H-M    'P1' 
_symmetry_Int_Tables_number       1 
_symmetry_cell_setting            triclinic 
loop_ 
_symmetry_equiv_pos_as_xyz 
  x,y,z 
_cell_length_a                    37.72616878 
_cell_length_b                    28.559984710983755 
_cell_length_c                    38.83142845824269 
_cell_angle_alpha                 89.00584561850484 
_cell_angle_beta                  91.48873198467845 
_cell_angle_gamma                 91.71206750648109 
loop_ 
_atom_site_label 
_atom_site_type_symbol 
_atom_site_fract_x 
_atom_site_fract_y 
_atom_site_fract_z 
_atom_site_charge 
C1          C  0.77193201  0.06709170  0.40351681     0.30100
C2          C  0.82068579  0.01733922  0.37091183     0.30100
C3          C  0.79595937  0.09648108  0.37845209    -0.06100
C4          C  0.79827867  0.04162129  0.42648444    -0.06900
C5          C  0.75583345  0.02830673  0.38008186    -0.06700
C6          C  0.82094585  0.07117432  0.36169886    -0.06100
C7          C  0.82381463  0.01675186  0.41078873    -0.06900
C8          C  0.78054381  0.00317502  0.36276831    -0.06800
C9          C  0.83329618  0.10065577  0.33508175    -0.32100
N10         N  0.81846994  0.14350157  0.33593195     0.14400
C11         C  0.79424728  0.14018092  0.36153818    -0.32100
H12         H  0.77415899  0.16570360  0.36532254     0.16300
C13         C  0.84847257  0.00524687  0.43705558    -0.31100
N14         N  0.83731631  0.02250224  0.46752516     0.13100
C15         C  0.80623669  0.04356542  0.46091034    -0.31100
C16         C  0.75956117  0.47660087  0.33869594    -0.31400
N17         N  0.72418121  0.48322840  0.34213564     0.13600
H18         H  0.76981619  0.45420711  0.31949158     0.15800
C19         C  0.72227541  0.01601145  0.36638627    -0.31400
H20         H  0.69760769  0.03224499  0.37199659     0.16200
H21         H  0.79101592  0.06111556  0.47978521     0.16200
H22         H  0.84865217  0.08995497  0.31364183     0.16300
H23         H  0.87097410  0.48957785  0.43520767     0.16200
O24         O  0.66765022  0.16198659  0.37421175    -0.85200
O25         O  0.66278627  0.11752770  0.31514529    -0.82300
C26         C  0.62926199  0.11075469  0.31331493     0.98200
O27         O  0.60602723  0.14261380  0.32252125    -0.82300
O28         O  0.59915573  0.21143863  0.38161678    -0.85000
C29         C  0.61027172  0.24228628  0.40252596     1.02700
O30         O  0.63458486  0.27217016  0.39446151    -0.77700
O31         O  0.69725604  0.22539810  0.38855065    -0.77900
C32         C  0.68635508  0.18472914  0.39576804     1.02700
O33         O  0.70856661  0.19609673  0.31124573    -0.85200
O34         O  0.64763337  0.18776807  0.27587084    -0.82300
C35         C  0.61991587  0.20537035  0.26299800     0.98200
O36         O  0.59764062  0.22374609  0.28127802    -0.82300
O37         O  0.59503325  0.29228191  0.32934434    -0.84900
C38         C  0.62033344  0.32308991  0.32335359     1.02700
O39         O  0.65158463  0.31642252  0.33248878    -0.77800
O40         O  0.71021669  0.27158001  0.32345973    -0.77900
C41         C  0.72109787  0.23773541  0.30621931     1.02700
Cr42       Cr  0.65880713  0.17802378  0.32506065     1.93700
Cr43       Cr  0.60149762  0.21899620  0.33072190     1.93200
Cr44       Cr  0.67193747  0.26934466  0.35854813     1.39100
O45         O  0.64709119  0.22985577  0.33350586    -1.23000
C46         C  0.68084837  0.33799958  0.09043661     0.30100
C47         C  0.64616734  0.27530229  0.13067349     0.30100
C48         C  0.65913411  0.35986205  0.11988524    -0.06100
C49         C  0.65252785  0.30629401  0.07240286    -0.06900
C50         C  0.70512340  0.30124616  0.10981842    -0.06700
C51         C  0.63937162  0.32723859  0.13742074    -0.06100
C52         C  0.63377181  0.27347279  0.09272504    -0.06900
C53         C  0.68605407  0.26728931  0.12696782    -0.06800
C54         C  0.61906109  0.34949447  0.16112110    -0.32100
N55         N  0.62891916  0.39521417  0.16236724     0.14400
C56         C  0.65348187  0.40213810  0.13726589    -0.32100
H57         H  0.66865654  0.43443467  0.13477716     0.16300
C58         C  0.60858260  0.25229022  0.07085897    -0.31100
N59         N  0.61174682  0.27258401  0.03887628     0.13100
C60         C  0.63883315  0.30462752  0.03984920    -0.31100
C61         C  0.70901713  0.23607444  0.14293102    -0.31400
N62         N  0.74257755  0.25325336  0.14110004     0.13600
H63         H  0.70103271  0.20704792  0.15978879     0.16200
C64         C  0.74075016  0.29319753  0.12061063    -0.31400
H65         H  0.76277610  0.31620633  0.11629089     0.16200
H66         H  0.64825192  0.32510403  0.01805245     0.16200
H67         H  0.60245311  0.33198018  0.18001045     0.16300
H68         H  0.58928278  0.22510931  0.07761165     0.16200
O69         O  0.74654771  0.44558508  0.15564597    -0.85200
O70         O  0.80026935  0.39406941  0.18288498    -0.82300
C71         C  0.83079989  0.38541946  0.19436237     0.98200
O72         O  0.85526613  0.41769024  0.19272262    -0.82300
O73         O  0.85734370  0.98148049  0.13074321    -0.85000
C74         C  0.84908979  0.01470963  0.11037750     1.02700
O75         O  0.82911541  0.04595298  0.12116904    -0.77700
O76         O  0.77377959  0.49150571  0.11746283    -0.77900
C77         C  0.75354694  0.45807867  0.12448171     1.02700
O78         O  0.75590980  0.50320294  0.22082821    -0.85200
O79         O  0.80856639  0.44669743  0.24273543    -0.82300
C80         C  0.83642728  0.46953021  0.25217399     0.98200
O81         O  0.85057474  0.00086080  0.23052633    -0.82300
O82         O  0.85512478  0.06427502  0.17816734    -0.84900
C83         C  0.82988553  0.09230655  0.18424184     1.02700
O84         O  0.79806243  0.07943024  0.18139912    -0.77800
O85         O  0.73533051  0.02880354  0.16941293    -0.77900
C86         C  0.72973852  0.02006803  0.20094973     1.02700
Cr87       Cr  0.77865566  0.45030289  0.19913738     1.93700
Cr88       Cr  0.85197715  0.99100483  0.18146185     1.93200
Cr89       Cr  0.78554008  0.03310903  0.14898467     1.39100
O90         O  0.80651734  0.48999624  0.17758066    -1.23000
O91         O  0.66466764  0.45382512  0.33289979    -0.85200
O92         O  0.62758569  0.03070451  0.31691786    -0.82300
C93         C  0.61985616  0.06532538  0.29853126     0.98200
O94         O  0.61329552  0.06137115  0.26624294    -0.82300
O95         O  0.67156380  0.03384945  0.22525579    -0.85000
C96         C  0.69448286  0.00651170  0.21415369     1.02700
O97         O  0.68884220  0.46367324  0.21914165    -0.77700
O98         O  0.70076895  0.45544271  0.28920614    -0.77900
C99         C  0.69539496  0.46314432  0.32063686     1.02700
O100        O  0.59788683  0.39920391  0.30749134    -0.85200
O101        O  0.56748280  0.48280216  0.29442368    -0.82300
C102        C  0.55283633  0.48728418  0.26494302     0.98200
O103        O  0.57104137  0.49199510  0.23805282    -0.82300
O104        O  0.62570944  0.46622762  0.19406679    -0.84900
C105        C  0.62698318  0.42145289  0.19401016     1.02700
O106        O  0.63102665  0.39954841  0.22235526    -0.77800
O107        O  0.64907330  0.37925609  0.28994326    -0.77900
C108        C  0.62013045  0.36832254  0.30422156     1.02700
Cr109      Cr  0.61623037  0.46613465  0.30976892     1.93700
Cr110      Cr  0.62120799  0.00821514  0.23253640     1.93200
Cr111      Cr  0.66494845  0.42723494  0.25630143     1.39100
O112        O  0.63397971  0.46878387  0.26724134    -1.23000
O113        O  0.79975303  0.26260495  0.16722752    -0.85200
O114        O  0.85560270  0.30967430  0.19986510    -0.82300
C115        C  0.83576118  0.33891917  0.21270936     0.98200
O116        O  0.81835999  0.32693531  0.23968922    -0.82300
O117        O  0.77822170  0.26729987  0.28906380    -0.85000
C118        C  0.74945452  0.24587988  0.28043855     1.02700
O119        O  0.74626359  0.22681740  0.25130178    -0.77700
O120        O  0.76685592  0.20257445  0.18500865    -0.77900
C121        C  0.77119568  0.23862352  0.16499095     1.02700
O122        O  0.83636110  0.17505946  0.17727885    -0.85200
O123        O  0.88660960  0.22321360  0.21798624    -0.82300
C124        C  0.89962289  0.24718319  0.24247305     0.98200
O125        O  0.88014279  0.27250313  0.26031709    -0.82300
O126        O  0.83724375  0.21151039  0.30237474    -0.84900
C127        C  0.81637611  0.17552774  0.30618485     1.02700
O128        O  0.79293301  0.16635758  0.28346030    -0.77800
O129        O  0.82197586  0.14427939  0.22597433    -0.77900
C130        C  0.83390128  0.13951657  0.19688683     1.02700
Cr131      Cr  0.84238790  0.24162289  0.19413288     1.93700
Cr132      Cr  0.82780544  0.26806431  0.26972844     1.93200
Cr133      Cr  0.78469162  0.18846658  0.23502974     1.39100
O134        O  0.81755364  0.23359184  0.23330214    -1.23000
C135        C  0.17376760  0.08914543  0.11144399     0.30100
C136        C  0.13256320  0.02857983  0.14879600     0.30100
C137        C  0.15090933  0.11273656  0.13889949    -0.06100
C138        C  0.14686895  0.05959604  0.09151737    -0.06900
C139        C  0.19463055  0.05244320  0.13362307    -0.06700
C140        C  0.12992773  0.08170049  0.15815152    -0.06100
C141        C  0.12548966  0.02882949  0.10967646    -0.06900
C142        C  0.17366616  0.02132355  0.15269860    -0.06800
C143        C  0.11961453  0.10664618  0.18678217    -0.32100
N144        N  0.13143949  0.15199439  0.18478551     0.14400
C145        C  0.15252962  0.15495360  0.15687431    -0.32100
H146        H  0.17047217  0.18430064  0.15216450     0.16300
C147        C  0.10191743  0.00842377  0.08563484    -0.31100
N148        N  0.10906303  0.02754773  0.05404913     0.13100
C149        C  0.13672872  0.05820780  0.05767133    -0.31100
C150        C  0.19620233  0.49651183  0.17448596    -0.31400
N151        N  0.23064757  0.50989083  0.16867750     0.13600
H152        H  0.18880300  0.47065943  0.19383015     0.16200
C153        C  0.22992388  0.04503869  0.14400946    -0.31400
H154        H  0.25299363  0.06514951  0.13641721     0.16200
H155        H  0.14854009  0.07847170  0.03686596     0.16200
H156        H  0.10803290  0.09183217  0.20967982     0.16300
H157        H  0.08015219  0.48628718  0.09081320     0.16200
O158        O  0.25439441  0.18526159  0.16975535    -0.85200
O159        O  0.31413128  0.14420421  0.18907800    -0.82300
C160        C  0.34300287  0.13650961  0.20383105     0.98200
O161        O  0.36590347  0.17042046  0.20625061    -0.82300
O162        O  0.36323301  0.23643519  0.14757961    -0.85000
C163        C  0.35259173  0.26896615  0.12802655     1.02700
O164        O  0.33057082  0.29747711  0.13908426    -0.77700
O165        O  0.27985336  0.23387464  0.13288272    -0.77900
C166        C  0.26115062  0.19880409  0.13899896     1.02700
O167        O  0.25909560  0.23350477  0.23727662    -0.85200
O168        O  0.31793702  0.18726992  0.25554787    -0.82300
C169        C  0.34155964  0.21623694  0.26668474     0.98200
O170        O  0.35782387  0.24455992  0.24707769    -0.82300
O171        O  0.35544829  0.31680262  0.19756069    -0.84900
C172        C  0.32801638  0.34204967  0.20320337     1.02700
O173        O  0.29746906  0.32496804  0.20036470    -0.77800
O174        O  0.23965816  0.26867334  0.19091452    -0.77900
C175        C  0.23546255  0.25656274  0.22237558     1.02700
Cr176      Cr  0.28745301  0.19034578  0.21176786     1.93700
Cr177      Cr  0.35816281  0.24207845  0.19807233     1.93200
Cr178      Cr  0.28836507  0.27832855  0.16772560     1.39100
O179        O  0.31158264  0.23702886  0.19352560    -1.23000
C180        C  0.26553538  0.34526344  0.43128917     0.30100
C181        C  0.30554847  0.28876922  0.39425166     0.30100
C182        C  0.29039899  0.37191584  0.40502768    -0.06100
C183        C  0.29094001  0.31321822  0.45167495    -0.06900
C184        C  0.24387833  0.31057785  0.40816059    -0.06700
C185        C  0.31301806  0.34325546  0.38862092    -0.06100
C186        C  0.31185639  0.28352970  0.43314240    -0.06900
C187        C  0.26448805  0.28073050  0.39083335    -0.06800
C188        C  0.32962180  0.37034307  0.36263587    -0.32100
N189        N  0.31448366  0.41273225  0.35889876     0.14400
C190        C  0.28927909  0.41289469  0.38392095    -0.32100
H191        H  0.26900747  0.43877242  0.38475945     0.16300
C192        C  0.33775276  0.26756716  0.45620293    -0.31100
N193        N  0.33172329  0.28567898  0.48769126     0.13100
C194        C  0.30346901  0.31354347  0.48491338    -0.31100
C195        C  0.24201501  0.25254515  0.37036458    -0.31400
N196        N  0.20809032  0.26588777  0.37329059     0.13600
H197        H  0.25022125  0.22643448  0.35256269     0.16200
C198        C  0.20893134  0.30190143  0.39603398    -0.31400
H199        H  0.18594995  0.32161999  0.40192123     0.16200
H200        H  0.29377478  0.33446934  0.50547171     0.16200
H201        H  0.34756517  0.35714681  0.34407251     0.16300
H202        H  0.36041726  0.24719032  0.45038930     0.16200
O203        O  0.17005093  0.44059553  0.38103041    -0.85200
O204        O  0.16357382  0.39835337  0.31893378    -0.82300
C205        C  0.13007763  0.39143357  0.31732884     0.98200
O206        O  0.10779284  0.42310683  0.32870235    -0.82300
O207        O  0.10583325  0.98702159  0.39237607    -0.85000
C208        C  0.11668893  0.01668390  0.41431993     1.02700
O209        O  0.13969356  0.04881074  0.40647771    -0.77700
O210        O  0.20142612  0.50343089  0.39424483    -0.77900
C211        C  0.18986668  0.46334035  0.40200275     1.02700
O212        O  0.21046937  0.47570633  0.32201498    -0.85200
O213        O  0.14864752  0.47351162  0.28238726    -0.82300
C214        C  0.11933359  0.49006367  0.27184619     0.98200
O215        O  0.10142622  0.00892811  0.29275596    -0.82300
O216        O  0.09737518  0.07005896  0.34662385    -0.84900
C217        C  0.12026502  0.10366950  0.34089030     1.02700
O218        O  0.15291078  0.09881091  0.34464651    -0.77800
O219        O  0.21318991  0.05278538  0.33195191    -0.77900
C220        C  0.22526862  0.01689203  0.31769832     1.02700
Cr221      Cr  0.16038037  0.45922077  0.33196690     1.93700
Cr222      Cr  0.10576154  0.99882443  0.34208672     1.93200
Cr223      Cr  0.17585280  0.04992966  0.36831889     1.39100
O224        O  0.14955557  0.51067079  0.34256767    -1.23000
O225        O  0.15091825  0.27393233  0.34817562    -0.85200
O226        O  0.09666183  0.31913549  0.31386843    -0.82300
C227        C  0.11868531  0.34693227  0.30001049     0.98200
O228        O  0.13461352  0.33407196  0.27321372    -0.82300
O229        O  0.17359050  0.27542324  0.22796927    -0.85000
C230        C  0.20223517  0.26112616  0.24186692     1.02700
O231        O  0.20192062  0.24344310  0.27190557    -0.77700
O232        O  0.17984264  0.21180611  0.33476097    -0.77900
C233        C  0.17831958  0.24981313  0.35143453     1.02700
O234        O  0.11105865  0.18525086  0.34227321    -0.85200
O235        O  0.06236247  0.23136911  0.29993221    -0.82300
C236        C  0.05018931  0.25339289  0.27399280     0.98200
O237        O  0.07050419  0.27839109  0.25488818    -0.82300
O238        O  0.11209623  0.21763822  0.21638664    -0.84900
C239        C  0.13334216  0.18391221  0.21368766     1.02700
O240        O  0.15724853  0.17777520  0.23644708    -0.77800
O241        O  0.12485726  0.15279239  0.29489059    -0.77900
C242        C  0.11337582  0.14867338  0.32468751     1.02700
Cr243      Cr  0.10707926  0.25140199  0.32291352     1.93700
Cr244      Cr  0.12301944  0.27507800  0.24610671     1.93200
Cr245      Cr  0.16341351  0.19924748  0.28509001     1.39100
O246        O  0.13135765  0.24230299  0.28430137    -1.23000
O247        O  0.29203025  0.51574340  0.18512794    -0.85200
O248        O  0.35728342  0.05707555  0.20730237    -0.82300
C249        C  0.34523795  0.09071459  0.22296083     0.98200
O250        O  0.32985266  0.08316337  0.25167355    -0.82300
O251        O  0.28516492  0.03494653  0.30235003    -0.85000
C252        C  0.25440120  0.01974997  0.29323733     1.02700
O253        O  0.24926592  0.49628099  0.26604210    -0.77700
O254        O  0.26137974  0.45592040  0.20530251    -0.77900
C255        C  0.26255788  0.49325161  0.18698737     1.02700
O256        O  0.32798442  0.42501886  0.19311130    -0.85200
O257        O  0.38337970  0.47124136  0.22607958    -0.82300
C258        C  0.39996207  0.49245071  0.25015434     0.98200
O259        O  0.38472009  0.01713650  0.27022914    -0.82300
O260        O  0.33814126  0.47130882  0.31899133    -0.84900
C261        C  0.31427679  0.44003854  0.32622509     1.02700
O262        O  0.29004113  0.43103981  0.30409288    -0.77800
O263        O  0.31472488  0.39771643  0.24340224    -0.77900
C264        C  0.32741378  0.39114303  0.21435849     1.02700
Cr265      Cr  0.33774352  0.49201909  0.20667430     1.93700
Cr266      Cr  0.33359967  0.02420882  0.28247870     1.93200
Cr267      Cr  0.28211580  0.44815682  0.25383657     1.39100
O268        O  0.31774350  0.48885499  0.24838508    -1.23000
C269        C  0.25804522  0.42080459  0.45993010    -0.12200
C270        C  0.24584837  0.37448896  0.45617365     0.04800
C271        C  0.20933019  0.36565140  0.45978044    -0.07500
C272        C  0.18722305  0.39866669  0.44446828    -0.08200
C273        C  0.20220940  0.44198243  0.43432428    -0.02800
C274        C  0.23550932  0.45602691  0.44901012     0.04100
N275        N  0.24898368  0.50328596  0.44684307     0.66600
H276        H  0.28615110  0.42889858  0.46336493     0.15500
H277        H  0.16071455  0.38825036  0.43604614     0.15200
N278        N  0.19557507  0.32152958  0.47297884     0.74300
O279        O  0.24108010  0.53172112  0.46972901    -0.39200
O280        O  0.27405124  0.51374792  0.42695261    -0.39100
O281        O  0.21633629  0.29217632  0.48649110    -0.39800
O282        O  0.16256508  0.31469283  0.47591616    -0.39900
C283        C  0.30870211  0.28149718  0.33418764    -0.12200
C284        C  0.32031931  0.26189563  0.36530984     0.04800
C285        C  0.33923611  0.21976146  0.36449116    -0.07500
C286        C  0.34755996  0.20202149  0.33172664    -0.08200
C287        C  0.34083784  0.22993177  0.30204391    -0.02800
C288        C  0.32402085  0.27179690  0.30498299     0.04100
N289        N  0.32209367  0.30598328  0.27828823     0.66600
H290        H  0.28991508  0.30960858  0.33271197     0.15500
H291        H  0.35892438  0.16786075  0.32954787     0.15200
N292        N  0.34576063  0.19224176  0.39483435     0.74300
O293        O  0.29189689  0.31993848  0.26881107    -0.39200
O294        O  0.34934279  0.33197281  0.27399077    -0.39100
O295        O  0.32170446  0.16423357  0.40528031    -0.39800
O296        O  0.37734607  0.18662325  0.40519265    -0.39900
C297        C  0.35883467  0.23196693  0.07128727    -0.12200
C298        C  0.36271288  0.27210894  0.09156168     0.04800
C299        C  0.36691589  0.31619393  0.07526550    -0.07500
C300        C  0.36083287  0.32036213  0.03965473    -0.08200
C301        C  0.35122930  0.28086683  0.02000773    -0.02800
C302        C  0.35259976  0.23607271  0.03560109     0.04100
N303        N  0.34192414  0.19531145  0.01674281     0.66600
H304        H  0.35629610  0.19778854  0.08350429     0.15500
H305        H  0.36075257  0.35488410  0.02764988     0.15200
N306        N  0.37499706  0.35712700  0.09508598     0.74300
O307        O  0.36462700  0.16565721  0.00960524    -0.39200
O308        O  0.30764525  0.18556861  0.51219674    -0.39100
O309        O  0.40231626  0.35870779  0.11455714    -0.39800
O310        O  0.35353073  0.39016166  0.09522601    -0.39900
C311        C  0.22875051  0.10827125  0.07992544    -0.12200
C312        C  0.19366979  0.11979721  0.08570239     0.04800
C313        C  0.18635137  0.16756741  0.08427254    -0.07500
C314        C  0.21152377  0.19757601  0.09915796    -0.08200
C315        C  0.24378057  0.17864077  0.10967566    -0.02800
C316        C  0.25528391  0.13753492  0.09428974     0.04100
N317        N  0.29161890  0.12313553  0.09578253     0.66600
H318        H  0.23483356  0.07271318  0.07342044     0.15500
H319        H  0.20464040  0.23276404  0.10596104     0.15200
N320        N  0.15275290  0.18403645  0.07233859     0.74300
O321        O  0.30160717  0.09195836  0.07581693    -0.39200
O322        O  0.31431203  0.14262820  0.11564538    -0.39100
O323        O  0.13328665  0.20521044  0.09251489    -0.39800
O324        O  0.14740292  0.18881547  0.04030041    -0.39900
C325        C  0.08036782  0.01262775  0.18587501    -0.12200
C326        C  0.10804896  0.99402240  0.16748434     0.04800
C327        C  0.11990852  0.45499839  0.18028963    -0.07500
C328        C  0.12294788  0.45069043  0.21608898    -0.08200
C329        C  0.10907805  0.98158207  0.23697608    -0.02800
C330        C  0.08096685  0.00680166  0.22166197     0.04100
N331        N  0.05507146  0.02878797  0.24175755     0.66600
H332        H  0.06353216  0.03878465  0.17404283     0.15500
H333        H  0.13928818  0.42392145  0.22783260     0.15200
N334        N  0.13423277  0.42052533  0.15834218     0.74300
O335        O  0.05680017  0.07238696  0.24655214    -0.39200
O336        O  0.03154098  0.00397770  0.25649744    -0.39100
O337        O  0.14231945  0.38089902  0.17059293    -0.39800
O338        O  0.13414979  0.42681397  0.12609151    -0.39900
C339        C  0.09187398  0.05730788  0.46373275    -0.12200
C340        C  0.10182012  0.01497079  0.44946482     0.04800
C341        C  0.09959754  0.47030645  0.46940582    -0.07500
C342        C  0.09788305  0.47370893  0.50554369    -0.08200
C343        C  0.09342774  0.01799886  0.02072680    -0.02800
C344        C  0.08407857  0.05952000  0.49867333     0.04100
N345        N  0.07172137  0.10184963  0.51265344     0.66600
H346        H  0.09046976  0.08874115  0.44776917     0.15500
H347        H  0.09918411  0.44646557  0.02293927     0.15200
N348        N  0.09952183  0.42450991  0.45448988     0.74300
O349        O  0.09062663  0.13895944  0.51157703    -0.39200
O350        O  0.04290584  0.09743545  0.02768575    -0.39100
O351        O  0.10865973  0.38983774  0.47291851    -0.39800
O352        O  0.08135575  0.41657550  0.42737312    -0.39900
C353        C  0.95023391  0.24685432  0.28436342    -0.12200
C354        C  0.93817584  0.24726800  0.24994089     0.04800
C355        C  0.96317094  0.24957237  0.22347164    -0.07500
C356        C  0.99950295  0.25186217  0.23185136    -0.08200
C357        C  0.01159694  0.25111918  0.26630534    -0.02800
C358        C  0.98653121  0.24835773  0.29275958     0.04100
N359        N  0.99736237  0.24923061  0.32828736     0.66600
H360        H  0.93132500  0.24545976  0.30493326     0.15500
H361        H  0.01836672  0.25403009  0.21125943     0.15200
N362        N  0.95215512  0.25196648  0.18802020     0.74300
O363        O  0.00190509  0.28810725  0.34295840    -0.39200
O364        O  0.99486594  0.21218382  0.34635430    -0.39100
O365        O  0.95104628  0.29136024  0.17286752    -0.39800
O366        O  0.95149467  0.21524323  0.17038675    -0.39900
C367        C  0.45569403  0.99336070  0.28503392    -0.12200
C368        C  0.43881816  0.48875928  0.25360755     0.04800
C369        C  0.46036048  0.48507877  0.22464294    -0.07500
C370        C  0.49723311  0.48432000  0.22901953    -0.08200
C371        C  0.51351384  0.48731014  0.26188379    -0.02800
C372        C  0.49254537  0.99198900  0.28906027     0.04100
N373        N  0.50800340  0.00183293  0.32224298     0.66600
H374        H  0.44015619  0.00129185  0.30717631     0.15500
H375        H  0.51317086  0.48186419  0.20634245     0.15200
N376        N  0.44548804  0.48499316  0.19041733     0.74300
O377        O  0.51491374  0.04378173  0.33034152    -0.39200
O378        O  0.50741966  0.97041560  0.34549366    -0.39100
O379        O  0.44553126  0.52264050  0.17291420    -0.39800
O380        O  0.43988868  0.44653093  0.17542914    -0.39900
C381        C  0.70443510  0.44977063  0.08248036    -0.12200
C382        C  0.73737596  0.43566984  0.09532450     0.04800
C383        C  0.75441525  0.39990662  0.07846977    -0.07500
C384        C  0.73329182  0.36776759  0.06021964    -0.08200
C385        C  0.69682862  0.37122876  0.06380132    -0.02800
C386        C  0.68445112  0.41726185  0.06338191     0.04100
N387        N  0.65003430  0.42810098  0.04989091     0.66600
H388        H  0.69337764  0.48268569  0.08968140     0.15500
H389        H  0.74459986  0.33587740  0.05131283     0.15200
N390        N  0.79199985  0.39881586  0.07693295     0.74300
O391        O  0.64703298  0.44100532  0.01875572    -0.39200
O392        O  0.62534351  0.43619559  0.07005947    -0.39100
O393        O  0.80935595  0.37459939  0.09855019    -0.39800
O394        O  0.80631711  0.41249805  0.04940889    -0.39900
C395        C  0.64654272  0.25441380  0.22520381    -0.12200
C396        C  0.62127555  0.21946517  0.22839225     0.04800
C397        C  0.60242307  0.20023987  0.20002027    -0.07500
C398        C  0.61012029  0.21778951  0.16706449    -0.08200
C399        C  0.63719822  0.25199895  0.16381020    -0.02800
C400        C  0.65661263  0.26902317  0.19404709     0.04100
N401        N  0.68675382  0.30160210  0.19423639     0.66600
H402        H  0.66058972  0.26925758  0.24758512     0.15500
H403        H  0.59559081  0.20490536  0.14458518     0.15200
N404        N  0.57612177  0.16378018  0.20426676     0.74300
O405        O  0.71645454  0.28614647  0.20367799    -0.39200
O406        O  0.68187902  0.34407521  0.20018800    -0.39100
O407        O  0.54374818  0.17368618  0.20254718    -0.39800
O408        O  0.58475801  0.12165465  0.20178797    -0.39900
C409        C  0.58667139  0.28999118  0.44809736    -0.12200
C410        C  0.59458041  0.24534039  0.43686470     0.04800
C411        C  0.59305360  0.20724699  0.46068261    -0.07500
C412        C  0.59143868  0.21640878  0.49605393    -0.08200
C413        C  0.59404849  0.26077046  0.00690197    -0.02800
C414        C  0.58280845  0.29840975  0.48303404     0.04100
N415        N  0.57625120  0.34499101  0.49363995     0.66600
H416        H  0.58570202  0.31913891  0.42986277     0.15500
H417        H  0.60060092  0.18681041  0.01310554     0.15200
N418        N  0.59567286  0.15983842  0.44999400     0.74300
O419        O  0.54525189  0.35500624  0.50176827    -0.39200
O420        O  0.59900697  0.37689833  0.98751237    -0.39100
O421        O  0.61551612  0.13264898  0.46702946    -0.39800
O422        O  0.57140133  0.14238614  0.43080092    -0.39900
C423        C  0.75915684  0.13952571  0.43526695    -0.12200
C424        C  0.74788989  0.09448532  0.42518315     0.04800
C425        C  0.71275439  0.07980689  0.43212745    -0.07500
C426        C  0.68751121  0.11445763  0.43171323    -0.08200
C427        C  0.69907476  0.16128697  0.42734696    -0.02800
C428        C  0.73383852  0.17330662  0.43866459     0.04100
N429        N  0.74486726  0.22080755  0.44479871     0.66600
H430        H  0.78706035  0.14973128  0.43610337     0.15500
H431        H  0.65991242  0.10440747  0.42754527     0.15200
N432        N  0.70289482  0.03154884  0.43912076     0.74300
O433        O  0.74222366  0.23683884  0.47466403    -0.39200
O434        O  0.76431075  0.24244222  0.42345495    -0.39100
O435        O  0.72533340  0.00430376  0.45248188    -0.39800
O436        O  0.67079433  0.01783379  0.43689975    -0.39900
C437        C  0.83538234  0.43082557  0.30992833    -0.12200
C438        C  0.85056536  0.96783752  0.28605345     0.04800
C439        C  0.87513850  0.00145859  0.29965768    -0.07500
C440        C  0.87427643  0.01044399  0.33485939    -0.08200
C441        C  0.84812117  0.98739862  0.35434779    -0.02800
C442        C  0.83582324  0.44034464  0.34507272     0.04100
N443        N  0.82286485  0.40611446  0.36936864     0.66600
H444        H  0.82062649  0.40045842  0.30027165     0.15500
H445        H  0.88881296  0.04063099  0.34504478     0.15200
N446        N  0.89834483  0.02874562  0.27801024     0.74300
O447        O  0.79029336  0.39482131  0.36964780    -0.39200
O448        O  0.84475172  0.37914881  0.38388974    -0.39100
O449        O  0.89327157  0.07173715  0.27253483    -0.39800
O450        O  0.92202839  0.00880774  0.26177836    -0.39900
C451        C  0.86270945  0.48421119  0.01819189    -0.12200
C452        C  0.85061691  0.02388954  0.00106818     0.04800
C453        C  0.85108975  0.06475134  0.02099032    -0.07500
C454        C  0.85477588  0.06134089  0.05671239    -0.08200
C455        C  0.85980869  0.01806159  0.07354479    -0.02800
C456        C  0.86913891  0.48236367  0.05431916     0.04100
N457        N  0.88814233  0.44416985  0.06933459     0.66600
H458        H  0.86719246  0.45366605  0.00294779     0.15500
H459        H  0.85163803  0.09270696  0.07152973     0.15200
N460        N  0.84626427  0.10990153  0.00532292     0.74300
O461        O  0.87458804  0.40329913  0.06919384    -0.39200
O462        O  0.92116062  0.44933973  0.07457482    -0.39100
O463        O  0.81948361  0.13303872  0.01240907    -0.39800
O464        O  0.87226678  0.13060950  0.99127258    -0.39900
C465        C  0.76890040  0.06919004  0.90246538     0.30100
C466        C  0.81786864  0.01802173  0.87110196     0.30100
C467        C  0.79329076  0.09746883  0.87714177    -0.06100
C468        C  0.79501739  0.04406454  0.92602839    -0.06900
C469        C  0.75292436  0.02968200  0.87956855    -0.06700
C470        C  0.81836236  0.07157812  0.86110271    -0.06100
C471        C  0.82047577  0.01846365  0.91078606    -0.06900
C472        C  0.77782920  0.00372748  0.86299505    -0.06800
C473        C  0.83202128  0.10089859  0.83506846    -0.32100
N474        N  0.81780795  0.14409624  0.83553881     0.14400
C475        C  0.79283939  0.14135420  0.86047059    -0.32100
H476        H  0.77316999  0.16750328  0.86390845     0.16300
C477        C  0.84460887  0.00629788  0.93710288    -0.31100
N478        N  0.83351618  0.02411622  0.96730241     0.13100
C479        C  0.80279635  0.04610493  0.96050945    -0.31100
C480        C  0.75716567  0.47957352  0.83803151    -0.31400
N481        N  0.72171536  0.48574960  0.84124669     0.13600
H482        H  0.76776525  0.45782359  0.81861643     0.15800
C483        C  0.71959267  0.01687633  0.86569981    -0.31400
H484        H  0.69500565  0.03400445  0.87003881     0.16200
H485        H  0.78776938  0.06419764  0.97925233     0.16200
H486        H  0.84813113  0.08984106  0.81397121     0.16300
H487        H  0.86844447  0.49044845  0.93504645     0.16200
O488        O  0.66969732  0.16431760  0.87533299    -0.85200
O489        O  0.66322560  0.11608347  0.81773621    -0.82300
C490        C  0.62963735  0.10986665  0.81494645     0.98200
O491        O  0.60646098  0.14240951  0.82284166    -0.82300
O492        O  0.60025145  0.21241173  0.88046682    -0.85000
C493        C  0.61073499  0.24406927  0.90084980     1.02700
O494        O  0.63342903  0.27557949  0.89162958    -0.77700
O495        O  0.69650515  0.23005519  0.88946873    -0.77900
C496        C  0.68686802  0.18903788  0.89699701     1.02700
O497        O  0.70879971  0.19532104  0.81076238    -0.85200
O498        O  0.64779872  0.18437047  0.77636051    -0.82300
C499        C  0.62045346  0.20216135  0.76284111     0.98200
O500        O  0.59846868  0.22233188  0.78045190    -0.82300
O501        O  0.59533326  0.29219991  0.82804270    -0.84900
C502        C  0.62054079  0.32232476  0.82038143     1.02700
O503        O  0.65205046  0.31462003  0.82754562    -0.77800
O504        O  0.71090899  0.27092871  0.82289400    -0.77900
C505        C  0.72140063  0.23690634  0.80567383     1.02700
Cr506      Cr  0.65954265  0.17733398  0.82588040     1.93700
Cr507      Cr  0.60204483  0.21888387  0.82988293     1.93200
Cr508      Cr  0.67178268  0.27076578  0.85671898     1.39100
O509        O  0.64762140  0.22951046  0.83277971    -1.23000
C510        C  0.67962751  0.33566810  0.58996257     0.30100
C511        C  0.64474783  0.27319028  0.63030733     0.30100
C512        C  0.65837767  0.35775859  0.61956485    -0.06100
C513        C  0.65066433  0.30477256  0.57206354    -0.06900
C514        C  0.70361107  0.29835311  0.60902411    -0.06700
C515        C  0.63865834  0.32523872  0.63732844    -0.06100
C516        C  0.63174935  0.27218672  0.59248237    -0.06900
C517        C  0.68452926  0.26435143  0.62607566    -0.06800
C518        C  0.61824914  0.34771614  0.66079470    -0.32100
N519        N  0.62786141  0.39355753  0.66155457     0.14400
C520        C  0.65226536  0.40035981  0.63627287    -0.32100
H521        H  0.66686544  0.43301411  0.63298122     0.16300
C522        C  0.60517324  0.25304207  0.57113952    -0.31100
N523        N  0.60765843  0.27424854  0.53938037     0.13100
C524        C  0.63562164  0.30498536  0.54000290    -0.31100
C525        C  0.70768479  0.23344204  0.64237814    -0.31400
N526        N  0.74118871  0.25122349  0.64077331     0.13600
H527        H  0.69987886  0.20468545  0.65929536     0.16200
C528        C  0.73901607  0.29112697  0.62058072    -0.31400
H529        H  0.76114725  0.31553016  0.61733135     0.16200
H530        H  0.64490661  0.32563640  0.51824650     0.16200
H531        H  0.60163539  0.33039824  0.67976567     0.16300
H532        H  0.58543380  0.22652652  0.57810499     0.16200
O533        O  0.74435630  0.44586293  0.65578136    -0.85200
O534        O  0.79772737  0.39523897  0.68454060    -0.82300
C535        C  0.82868024  0.38683781  0.69500724     0.98200
O536        O  0.85297148  0.41933115  0.69274501    -0.82300
O537        O  0.85583580  0.98103859  0.63182183    -0.85000
C538        C  0.84811885  0.01436611  0.61127800     1.02700
O539        O  0.82820268  0.04592278  0.62181904    -0.77700
O540        O  0.77102527  0.49187959  0.61719298    -0.77900
C541        C  0.75154562  0.45766262  0.62451320     1.02700
O542        O  0.75314148  0.50607007  0.72003276    -0.85200
O543        O  0.80564482  0.44989202  0.74324964    -0.82300
C544        C  0.83366050  0.47251518  0.75247263     0.98200
O545        O  0.84996660  0.00107928  0.73181241    -0.82300
O546        O  0.85463310  0.06416157  0.67881835    -0.84900
C547        C  0.82972468  0.09284058  0.68458479     1.02700
O548        O  0.79777881  0.08045413  0.68224637    -0.77800
O549        O  0.73441462  0.03053053  0.67080375    -0.77900
C550        C  0.72878933  0.02182360  0.70234237     1.02700
Cr551      Cr  0.77605683  0.45227560  0.69945945     1.93700
Cr552      Cr  0.85081058  0.99095090  0.68263456     1.93200
Cr553      Cr  0.78467217  0.03407725  0.65022179     1.39100
O554        O  0.80395775  0.49142930  0.67734748    -1.23000
O555        O  0.66257312  0.45549167  0.83151992    -0.85200
O556        O  0.62806084  0.02979958  0.81768078    -0.82300
C557        C  0.61993535  0.06471872  0.79984952     0.98200
O558        O  0.61214939  0.06118919  0.76774620    -0.82300
O559        O  0.67054882  0.03455900  0.72663473    -0.85000
C560        C  0.69360806  0.00748628  0.71545879     1.02700
O561        O  0.68669725  0.46510360  0.71766290    -0.77700
O562        O  0.69886653  0.45855608  0.78793441    -0.77900
C563        C  0.69323863  0.46566730  0.81941396     1.02700
O564        O  0.59698305  0.39832335  0.80583596    -0.85200
O565        O  0.56508798  0.48028615  0.79260346    -0.82300
C566        C  0.55042573  0.48339747  0.76310500     0.98200
O567        O  0.56854460  0.48890012  0.73622653    -0.82300
O568        O  0.62373104  0.46500742  0.69256760    -0.84900
C569        C  0.62582381  0.42031266  0.69293819     1.02700
O570        O  0.63047337  0.39905850  0.72146633    -0.77800
O571        O  0.64900237  0.38091826  0.78913334    -0.77900
C572        C  0.61996532  0.36846286  0.80260012     1.02700
Cr573      Cr  0.61394893  0.46582533  0.80813983     1.93700
Cr574      Cr  0.62027952  0.00873921  0.73336095     1.93200
Cr575      Cr  0.66376661  0.42859173  0.75514891     1.39100
O576        O  0.63185175  0.46893353  0.76571127    -1.23000
O577        O  0.79814318  0.26245227  0.66689682    -0.85200
O578        O  0.85390821  0.31087773  0.69879670    -0.82300
C579        C  0.83440368  0.33984541  0.71254835     0.98200
O580        O  0.81771086  0.32723982  0.73978354    -0.82300
O581        O  0.77810699  0.26674958  0.78841801    -0.85000
C582        C  0.74944658  0.24507375  0.77980973     1.02700
O583        O  0.74612726  0.22599045  0.75067121    -0.77700
O584        O  0.76659621  0.20116055  0.68450780    -0.77900
C585        C  0.77006308  0.23744190  0.66464171     1.02700
O586        O  0.83571171  0.17549349  0.67669107    -0.85200
O587        O  0.88600447  0.22443447  0.71653118    -0.82300
C588        C  0.89916354  0.24746039  0.74141926     0.98200
O589        O  0.87988364  0.27271108  0.75952757    -0.82300
O590        O  0.83733507  0.21141145  0.80163661    -0.84900
C591        C  0.81628284  0.17567941  0.80558674     1.02700
O592        O  0.79288775  0.16651088  0.78290804    -0.77800
O593        O  0.82308431  0.14532082  0.72596969    -0.77900
C594        C  0.83425673  0.14019622  0.69666874     1.02700
Cr595      Cr  0.84136808  0.24237390  0.69323681     1.93700
Cr596      Cr  0.82758859  0.26806240  0.76919110     1.93200
Cr597      Cr  0.78480998  0.18817807  0.73455044     1.39100
O598        O  0.81708558  0.23396340  0.73264026    -1.23000
C599        C  0.17500787  0.08839847  0.61040561     0.30100
C600        C  0.13302553  0.02891004  0.64792383     0.30100
C601        C  0.15346980  0.11246873  0.63871763    -0.06100
C602        C  0.14679403  0.06065739  0.59074742    -0.06900
C603        C  0.19524515  0.05022967  0.63165187    -0.06700
C604        C  0.13206057  0.08195368  0.65794467    -0.06100
C605        C  0.12514545  0.03034013  0.60902092    -0.06900
C606        C  0.17391345  0.01967307  0.65085684    -0.06800
C607        C  0.12105784  0.10764743  0.68571931    -0.32100
N608        N  0.13299272  0.15272925  0.68372941     0.14400
C609        C  0.15460380  0.15527136  0.65603866    -0.32100
H610        H  0.17214381  0.18469034  0.65092961     0.16300
C611        C  0.10059894  0.01134815  0.58534185    -0.31100
N612        N  0.10730240  0.03102500  0.55386549     0.13100
C613        C  0.13567669  0.06059456  0.55716443    -0.31100
C614        C  0.19590709  0.49380998  0.67379915    -0.31400
N615        N  0.23009482  0.50820945  0.66809807     0.13600
H616        H  0.18894091  0.46802061  0.69328031     0.16200
C617        C  0.23035591  0.04286823  0.64258657    -0.31400
H618        H  0.25353333  0.06311580  0.63545310     0.16200
H619        H  0.14753032  0.08062650  0.53626435     0.16200
H620        H  0.10813714  0.09292332  0.70909932     0.16300
H621        H  0.07998753  0.48115592  0.59066916     0.16200
O622        O  0.25390779  0.18545023  0.66855439    -0.85200
O623        O  0.31305683  0.14370933  0.68907502    -0.82300
C624        C  0.34195022  0.13611517  0.70387865     0.98200
O625        O  0.36479224  0.17012568  0.70633432    -0.82300
O626        O  0.36275299  0.23614245  0.64750383    -0.85000
C627        C  0.35224938  0.26865806  0.62783416     1.02700
O628        O  0.33037684  0.29743147  0.63880193    -0.77700
O629        O  0.27948047  0.23444865  0.63198769    -0.77900
C630        C  0.26116948  0.19896385  0.63789693     1.02700
O631        O  0.25791646  0.23412298  0.73608323    -0.85200
O632        O  0.31623916  0.18748122  0.75505255    -0.82300
C633        C  0.33979524  0.21637913  0.76637742     0.98200
O634        O  0.35633581  0.24461586  0.74694283    -0.82300
O635        O  0.35475538  0.31653977  0.69735121    -0.84900
C636        C  0.32734977  0.34186607  0.70284955     1.02700
O637        O  0.29679338  0.32490862  0.69989164    -0.77800
O638        O  0.23885158  0.26930742  0.68963251    -0.77900
C639        C  0.23456320  0.25758139  0.72113222     1.02700
Cr640      Cr  0.28630288  0.19051534  0.71102126     1.93700
Cr641      Cr  0.35725598  0.24186038  0.69795748     1.93200
Cr642      Cr  0.28783538  0.27858233  0.66700189     1.39100
O643        O  0.31072813  0.23697893  0.69289830    -1.23000
C644        C  0.26519998  0.34595292  0.93146063     0.30100
C645        C  0.30547248  0.28959715  0.89455882     0.30100
C646        C  0.29007439  0.37270087  0.90527308    -0.06100
C647        C  0.29078133  0.31420494  0.95198049    -0.06900
C648        C  0.24367619  0.31120785  0.90829828    -0.06700
C649        C  0.31272269  0.34402898  0.88887531    -0.06100
C650        C  0.31184154  0.28456997  0.93350229    -0.06900
C651        C  0.26435368  0.28118023  0.89130175    -0.06800
C652        C  0.32925966  0.37094091  0.86282777    -0.32100
N653        N  0.31419607  0.41335909  0.85910786     0.14400
C654        C  0.28905717  0.41371970  0.88421274    -0.32100
H655        H  0.26889967  0.43976486  0.88517291     0.16300
C656        C  0.33796937  0.26926216  0.95658880    -0.31100
N657        N  0.33202343  0.28765619  0.98799143     0.13100
C658        C  0.30358578  0.31519698  0.98516420    -0.31100
C659        C  0.24191173  0.25305052  0.87069898    -0.31400
N660        N  0.20802023  0.26683245  0.87302340     0.13600
H661        H  0.25019221  0.22673932  0.85309307     0.16200
C662        C  0.20881244  0.30299194  0.89565513    -0.31400
H663        H  0.18592076  0.32313047  0.90116118     0.16200
H664        H  0.29385896  0.33623199  0.00564598     0.16200
H665        H  0.34701961  0.35754758  0.84416653     0.16300
H666        H  0.36071048  0.24903405  0.95092362     0.16200
O667        O  0.16879349  0.43938676  0.88237766    -0.85200
O668        O  0.16286112  0.39641631  0.82028764    -0.82300
C669        C  0.12930744  0.39011857  0.81792008     0.98200
O670        O  0.10709246  0.42200249  0.82904581    -0.82300
O671        O  0.10519670  0.98586743  0.89149692    -0.85000
C672        C  0.11647850  0.01484146  0.91377534     1.02700
O673        O  0.13962791  0.04688312  0.90615161    -0.77700
O674        O  0.20063619  0.50200927  0.89495056    -0.77900
C675        C  0.18848287  0.46239539  0.90330891     1.02700
O676        O  0.21023687  0.47389434  0.82336716    -0.85200
O677        O  0.14892620  0.47140029  0.78322750    -0.82300
C678        C  0.11974968  0.48787440  0.77224491     0.98200
O679        O  0.10132131  0.00913700  0.79206940    -0.82300
O680        O  0.09762772  0.06968599  0.84594757    -0.84900
C681        C  0.12086449  0.10294926  0.84030958     1.02700
O682        O  0.15337692  0.09767766  0.84462969    -0.77800
O683        O  0.21302232  0.05116162  0.83171299    -0.77900
C684        C  0.22487523  0.01541093  0.81715017     1.02700
Cr685      Cr  0.15992578  0.45753536  0.83300414     1.93700
Cr686      Cr  0.10539454  0.99823902  0.84122987     1.93200
Cr687      Cr  0.17576218  0.04814574  0.86799587     1.39100
O688        O  0.14911119  0.50918694  0.84312937    -1.23000
O689        O  0.15072686  0.27410546  0.84765470    -0.85200
O690        O  0.09575825  0.31811477  0.81343377    -0.82300
C691        C  0.11769045  0.34626376  0.79985346     0.98200
O692        O  0.13341553  0.33409043  0.77275394    -0.82300
O693        O  0.17273898  0.27663085  0.72686717    -0.85000
C694        C  0.20157747  0.26315149  0.74080800     1.02700
O695        O  0.20150883  0.24652390  0.77114297    -0.77700
O696        O  0.18052411  0.21293142  0.83391412    -0.77900
C697        C  0.17846829  0.25060649  0.85086182     1.02700
O698        O  0.11166034  0.18460087  0.84140880    -0.85200
O699        O  0.06229950  0.22982625  0.79952872    -0.82300
C700        C  0.04976245  0.25142511  0.77355655     0.98200
O701        O  0.06971821  0.27696851  0.75443946    -0.82300
O702        O  0.11223142  0.21751140  0.71554194    -0.84900
C703        C  0.13433616  0.18478509  0.71259461     1.02700
O704        O  0.15833138  0.17929698  0.73539981    -0.77800
O705        O  0.12697733  0.15221188  0.79432801    -0.77900
C706        C  0.11468055  0.14809605  0.82387927     1.02700
Cr707      Cr  0.10698217  0.25070329  0.82233730     1.93700
Cr708      Cr  0.12231097  0.27505084  0.74543590     1.93200
Cr709      Cr  0.16421137  0.20048490  0.78423497     1.39100
O710        O  0.13118953  0.24224816  0.78357889    -1.23000
O711        O  0.29114398  0.51532207  0.68497609    -0.85200
O712        O  0.35642649  0.05656750  0.70694820    -0.82300
C713        C  0.34439228  0.09009251  0.72280129     0.98200
O714        O  0.32922607  0.08230745  0.75160336    -0.82300
O715        O  0.28466067  0.03370199  0.80206568    -0.85000
C716        C  0.25396096  0.01858590  0.79277071     1.02700
O717        O  0.24823866  0.49426488  0.76653721    -0.77700
O718        O  0.26082878  0.45515196  0.70529670    -0.77900
C719        C  0.26190851  0.49236740  0.68678060     1.02700
O720        O  0.32650009  0.42465406  0.69262467    -0.85200
O721        O  0.38172986  0.47010357  0.72582767    -0.82300
C722        C  0.39839077  0.49127551  0.74979628     0.98200
O723        O  0.38414663  0.01640781  0.77013691    -0.82300
O724        O  0.33721931  0.47211216  0.81905944    -0.84900
C725        C  0.31382846  0.44022408  0.82627640     1.02700
O726        O  0.29003300  0.43006227  0.80397511    -0.77800
O727        O  0.31483359  0.39751885  0.74322544    -0.77900
C728        C  0.32682035  0.39090110  0.71393637     1.02700
Cr729      Cr  0.33659294  0.49141257  0.70639773     1.93700
Cr730      Cr  0.33305408  0.02318576  0.78226550     1.93200
Cr731      Cr  0.28162887  0.44713277  0.75383300     1.39100
O732        O  0.31672118  0.48841467  0.74818225    -1.23000
C733        C  0.25678212  0.42120596  0.96030233    -0.12200
C734        C  0.24505632  0.37476271  0.95619194     0.04800
C735        C  0.20863890  0.36497043  0.96027209    -0.07500
C736        C  0.18579982  0.39812192  0.94621397    -0.08200
C737        C  0.20023370  0.44181348  0.93619097    -0.02800
C738        C  0.23345352  0.45617134  0.95080755     0.04100
N739        N  0.24603700  0.50386351  0.94970821     0.66600
H740        H  0.28483495  0.42991430  0.96331615     0.15500
H741        H  0.15915940  0.38748162  0.93829397     0.15200
N742        N  0.19547385  0.32023020  0.97293482     0.74300
O743        O  0.23976496  0.53002307  0.97454478    -0.39200
O744        O  0.26948978  0.51649613  0.92860255    -0.39100
O745        O  0.21674682  0.28897455  0.98248264    -0.39800
O746        O  0.16303643  0.31444387  0.97958289    -0.39900
C747        C  0.30732295  0.28219290  0.83430591    -0.12200
C748        C  0.32010661  0.26309602  0.86529244     0.04800
C749        C  0.34038267  0.22213525  0.86416202    -0.07500
C750        C  0.34767616  0.20382521  0.83135813    -0.08200
C751        C  0.33851007  0.23019065  0.80159914    -0.02800
C752        C  0.32072763  0.27126958  0.80444408     0.04100
N753        N  0.31897866  0.30559364  0.77784530     0.66600
H754        H  0.28869455  0.31050525  0.83320370     0.15500
H755        H  0.36071511  0.17077365  0.82922209     0.15200
N756        N  0.35124267  0.19739872  0.89460903     0.74300
O757        O  0.28897078  0.32060449  0.76874790    -0.39200
O758        O  0.34655213  0.33102685  0.77376946    -0.39100
O759        O  0.33147698  0.16458506  0.90602794    -0.39800
O760        O  0.38362284  0.19892568  0.90363780    -0.39900
C761        C  0.35852288  0.23101342  0.57135628    -0.12200
C762        C  0.36230214  0.27147880  0.59133428     0.04800
C763        C  0.36612590  0.31543651  0.57470021    -0.07500
C764        C  0.36056410  0.31887451  0.53900058    -0.08200
C765        C  0.35098239  0.27911070  0.51967578    -0.02800
C766        C  0.35201151  0.23456669  0.53567434     0.04100
N767        N  0.34040466  0.19370803  0.51735588     0.66600
H768        H  0.35595801  0.19702507  0.58385164     0.15500
H769        H  0.36042364  0.35319632  0.52667548     0.15200
N770        N  0.37263621  0.35707338  0.59421940     0.74300
O771        O  0.36210895  0.16216359  0.51166109    -0.39200
O772        O  0.30934400  0.18516648  0.01240370    -0.39100
O773        O  0.39798730  0.35912381  0.61606266    -0.39800
O774        O  0.35177024  0.39071450  0.59123925    -0.39900
C775        C  0.23055791  0.10698774  0.57937037    -0.12200
C776        C  0.19531740  0.11836484  0.58454906     0.04800
C777        C  0.18778892  0.16601391  0.58228869    -0.07500
C778        C  0.21264912  0.19667072  0.59689978    -0.08200
C779        C  0.24476230  0.17820820  0.60833235    -0.02800
C780        C  0.25670977  0.13669652  0.59388639     0.04100
N781        N  0.29307472  0.12252494  0.59632645     0.66600
H782        H  0.23693133  0.07140513  0.57322051     0.15500
H783        H  0.20547084  0.23198986  0.60304409     0.15200
N784        N  0.15420427  0.18186311  0.56988724     0.74300
O785        O  0.30379517  0.09162140  0.57652149    -0.39200
O786        O  0.31507440  0.14186493  0.61696575    -0.39100
O787        O  0.13389350  0.20173973  0.58999197    -0.39800
O788        O  0.14958529  0.18760954  0.53783212    -0.39900
C789        C  0.08065472  0.01449859  0.68501309    -0.12200
C790        C  0.10794800  0.99506107  0.66660671     0.04800
C791        C  0.12071450  0.45091560  0.68096703    -0.07500
C792        C  0.12412444  0.44756614  0.71680479    -0.08200
C793        C  0.10934269  0.98333060  0.73608928    -0.02800
C794        C  0.08155634  0.00927368  0.72082984     0.04100
N795        N  0.05639455  0.03269776  0.74093630     0.66600
H796        H  0.06417519  0.04101046  0.67312221     0.15500
H797        H  0.14100830  0.42154387  0.72874933     0.15200
N798        N  0.13507364  0.41599197  0.65944466     0.74300
O799        O  0.06086492  0.07550863  0.74786383    -0.39200
O800        O  0.03119222  0.00941113  0.75430397    -0.39100
O801        O  0.14117835  0.37571188  0.67173116    -0.39800
O802        O  0.13693709  0.42277407  0.62733129    -0.39900
C803        C  0.09229658  0.05450955  0.96391922    -0.12200
C804        C  0.10204726  0.01244173  0.94913635     0.04800
C805        C  0.09734592  0.47226173  0.97005597    -0.07500
C806        C  0.09604198  0.47679729  0.00614077    -0.08200
C807        C  0.09155908  0.02134504  0.52067684    -0.02800
C808        C  0.08525876  0.05626099  0.99904604     0.04100
N809        N  0.07260238  0.09814162  0.01341910     0.66600
H810        H  0.09041445  0.08610681  0.94819142     0.15500
H811        H  0.10240096  0.44338049  0.52201290     0.15200
N812        N  0.09639041  0.42606545  0.95576232     0.74300
O813        O  0.09164369  0.13515458  0.01351498    -0.39200
O814        O  0.04249404  0.10149985  0.52776961    -0.39100
O815        O  0.10585145  0.39164130  0.97429092    -0.39800
O816        O  0.07774502  0.41789003  0.92897960    -0.39900
C817        C  0.94962658  0.24561456  0.78361047    -0.12200
C818        C  0.93769306  0.24623467  0.74913232     0.04800
C819        C  0.96283707  0.24675803  0.72280134    -0.07500
C820        C  0.99914945  0.24853116  0.73133014    -0.08200
C821        C  0.01113586  0.24820448  0.76582423    -0.02800
C822        C  0.98591310  0.24572222  0.79216640     0.04100
N823        N  0.99657309  0.24491989  0.82774699     0.66600
H824        H  0.93063026  0.24475094  0.80410263     0.15500
H825        H  0.01810405  0.24993747  0.71080754     0.15200
N826        N  0.95202332  0.24736795  0.68726844     0.74300
O827        O  0.99728946  0.28250092  0.84439253    -0.39200
O828        O  0.99713168  0.20624613  0.84394311    -0.39100
O829        O  0.95119880  0.28591103  0.67093227    -0.39800
O830        O  0.95083201  0.20960685  0.67082498    -0.39900
C831        C  0.45434579  0.98632799  0.78551973    -0.12200
C832        C  0.43687927  0.48665785  0.75280228     0.04800
C833        C  0.45825287  0.49098242  0.72364767    -0.07500
C834        C  0.49501164  0.48870277  0.72752800    -0.08200
C835        C  0.51117604  0.48203758  0.76015737    -0.02800
C836        C  0.49113888  0.98440263  0.78977908     0.04100
N837        N  0.50587417  0.98547373  0.82405138     0.66600
H838        H  0.43826750  0.98880317  0.80812027     0.15500
H839        H  0.51093319  0.49338588  0.70483348     0.15200
N840        N  0.44323973  0.50087213  0.69023250     0.74300
O841        O  0.51169901  0.02438972  0.83834879    -0.39200
O842        O  0.50565829  0.94838564  0.84220042    -0.39100
O843        O  0.44140228  0.54286242  0.67984592    -0.39800
O844        O  0.43894997  0.46824299  0.66889433    -0.39900
C845        C  0.70417866  0.44747833  0.58106075    -0.12200
C846        C  0.73659195  0.43342050  0.59536429     0.04800
C847        C  0.75414906  0.39632509  0.57999087    -0.07500
C848        C  0.73304262  0.36454254  0.56102127    -0.08200
C849        C  0.69647360  0.36849190  0.56351602    -0.02800
C850        C  0.68439689  0.41455271  0.56221716     0.04100
N851        N  0.65055798  0.42559265  0.54741459     0.66600
H852        H  0.69308416  0.48078747  0.58723965     0.15500
H853        H  0.74384837  0.33193165  0.55290853     0.15200
N854        N  0.79164724  0.38983281  0.58441923     0.74300
O855        O  0.64919885  0.44367454  0.51755615    -0.39200
O856        O  0.62388225  0.42745067  0.56621341    -0.39100
O857        O  0.80516984  0.35177974  0.57629713    -0.39800
O858        O  0.81199858  0.42430811  0.59125662    -0.39900
C859        C  0.64753919  0.24990330  0.72466529    -0.12200
C860        C  0.62240053  0.21486127  0.72801932     0.04800
C861        C  0.60270728  0.19640219  0.69989341    -0.07500
C862        C  0.60934709  0.21501647  0.66696791    -0.08200
C863        C  0.63599009  0.24985644  0.66352603    -0.02800
C864        C  0.65604683  0.26636227  0.69354686     0.04100
N865        N  0.68568422  0.29975642  0.69356223     0.66600
H866        H  0.66217207  0.26426483  0.74689049     0.15500
H867        H  0.59450478  0.20228091  0.64462487     0.15200
N868        N  0.57718404  0.15899457  0.70428441     0.74300
O869        O  0.71574659  0.28499619  0.70249432    -0.39200
O870        O  0.68020530  0.34184686  0.70024103    -0.39100
O871        O  0.54455911  0.16720220  0.70136918    -0.39800
O872        O  0.58709292  0.11721387  0.70369617    -0.39900
C873        C  0.58876933  0.28985699  0.94811328    -0.12200
C874        C  0.59636420  0.24564752  0.93585725     0.04800
C875        C  0.59539481  0.20653891  0.95910735    -0.07500
C876        C  0.59600187  0.21511466  0.99478548    -0.08200
C877        C  0.58975483  0.26242074  0.50749528    -0.02800
C878        C  0.58578775  0.29708638  0.98325204     0.04100
N879        N  0.57833892  0.34287158  0.99488106     0.66600
H880        H  0.58691930  0.31951443  0.93041082     0.15500
H881        H  0.59530201  0.18824921  0.51468319     0.15200
N882        N  0.59477264  0.15886697  0.94755759     0.74300
O883        O  0.54752620  0.35090641  0.00470201    -0.39200
O884        O  0.59816785  0.37774140  0.48649550    -0.39100
O885        O  0.60476187  0.12660205  0.96789557    -0.39800
O886        O  0.57619360  0.14758889  0.92134758    -0.39900
C887        C  0.75835508  0.14255420  0.93397323    -0.12200
C888        C  0.74525042  0.09837313  0.92338960     0.04800
C889        C  0.70986469  0.08564172  0.93123261    -0.07500
C890        C  0.68627316  0.12171155  0.93497501    -0.08200
C891        C  0.69888767  0.16777866  0.92967818    -0.02800
C892        C  0.73446855  0.17763682  0.93925448     0.04100
N893        N  0.74739780  0.22437597  0.94541369     0.66600
H894        H  0.78652342  0.15116556  0.93418575     0.15500
H895        H  0.65818261  0.11353190  0.93375769     0.15200
N896        N  0.69839802  0.03801345  0.93747000     0.74300
O897        O  0.75087695  0.23788663  0.97611161    -0.39200
O898        O  0.76360746  0.24678318  0.92202895    -0.39100
O899        O  0.71564239  0.01340611  0.95896080    -0.39800
O900        O  0.66743334  0.02444606  0.92838576    -0.39900
C901        C  0.83305252  0.43383813  0.81019087    -0.12200
C902        C  0.84934383  0.96824625  0.78750266     0.04800
C903        C  0.87387268  0.00160272  0.80143042    -0.07500
C904        C  0.87249487  0.01051458  0.83662161    -0.08200
C905        C  0.84577801  0.98774423  0.85560680    -0.02800
C906        C  0.83338047  0.44270469  0.84543583     0.04100
N907        N  0.81989343  0.40827448  0.86929805     0.66600
H908        H  0.81873369  0.40326710  0.80030209     0.15500
H909        H  0.88699718  0.04056787  0.84705486     0.15200
N910        N  0.89766699  0.02847716  0.78013036     0.74300
O911        O  0.78743629  0.39627091  0.86835736    -0.39200
O912        O  0.84155704  0.38197825  0.88484067    -0.39100
O913        O  0.89227383  0.07109328  0.77339195    -0.39800
O914        O  0.92206789  0.00826121  0.76512374    -0.39900
C915        C  0.86292525  0.48574203  0.51804874    -0.12200
C916        C  0.85417026  0.02287036  0.50152417     0.04800
C917        C  0.85356972  0.06383539  0.52133963    -0.07500
C918        C  0.85510039  0.06060880  0.55723969    -0.08200
C919        C  0.85971314  0.01754318  0.57453704    -0.02800
C920        C  0.86833105  0.48358917  0.55430282     0.04100
N921        N  0.88545043  0.44401733  0.56963227     0.66600
H922        H  0.86732637  0.45516694  0.50280861     0.15500
H923        H  0.85095014  0.09201652  0.57170342     0.15200
N924        N  0.84976703  0.10892748  0.50526210     0.74300
O925        O  0.87639776  0.40316712  0.56031529    -0.39200
O926        O  0.91492829  0.45043286  0.58521532    -0.39100
O927        O  0.82212347  0.13160161  0.50989714    -0.39800
O928        O  0.87696927  0.13027021  0.49402219    -0.39900
C929        C  0.77145014  0.56986138  0.40154729     0.30100
C930        C  0.81978382  0.51715040  0.37079853     0.30100
C931        C  0.79684139  0.59738323  0.37682390    -0.06100
C932        C  0.79641319  0.54355747  0.42538273    -0.06900
C933        C  0.75493112  0.53106330  0.37842258    -0.06700
C934        C  0.82149347  0.57078875  0.36087189    -0.06100
C935        C  0.82193740  0.51750921  0.41068939    -0.06900
C936        C  0.77948681  0.50432973  0.36210495    -0.06800
C937        C  0.83576949  0.59996136  0.33488681    -0.32100
N938        N  0.82232137  0.64379728  0.33573044     0.14400
C939        C  0.79735040  0.64146898  0.36057451    -0.32100
H940        H  0.77800981  0.66812892  0.36402736     0.16300
C941        C  0.84598437  0.50671460  0.43762587    -0.31100
N942        N  0.83427836  0.52518254  0.46748024     0.13100
C943        C  0.80340874  0.54614386  0.45985630    -0.31100
C944        C  0.76079583  0.97752833  0.33791139    -0.31400
N945        N  0.72534640  0.98362513  0.34148569     0.13600
H946        H  0.77125467  0.95733423  0.31751596     0.15800
C947        C  0.72129705  0.51783277  0.36547371    -0.31400
H948        H  0.69676358  0.53474795  0.37046676     0.16200
H949        H  0.78765958  0.56415506  0.47801651     0.16200
H950        H  0.85135060  0.58864278  0.31394666     0.16300
H951        H  0.87344480  0.98838949  0.43381097     0.16200
O952        O  0.67116364  0.66552717  0.37920403    -0.85200
O953        O  0.66624579  0.61560457  0.32213522    -0.82300
C954        C  0.63265950  0.61028464  0.31813610     0.98200
O955        O  0.60973029  0.64348354  0.32494835    -0.82300
O956        O  0.60239818  0.71437366  0.38156963    -0.85000
C957        C  0.61427089  0.74416763  0.40285873     1.02700
O958        O  0.63880734  0.77400115  0.39505785    -0.77700
O959        O  0.70225477  0.72890021  0.38990722    -0.77900
C960        C  0.69055063  0.68955781  0.39947391     1.02700
O961        O  0.71288450  0.69472412  0.31478413    -0.85200
O962        O  0.65305102  0.68332367  0.27949045    -0.82300
C963        C  0.62639356  0.70136132  0.26492270     0.98200
O964        O  0.60407463  0.72257800  0.28150820    -0.82300
O965        O  0.59905135  0.79261365  0.32871556    -0.84900
C966        C  0.62422508  0.82328296  0.32270028     1.02700
O967        O  0.65546005  0.81669454  0.33182685    -0.77800
O968        O  0.71369762  0.77129541  0.32348018    -0.77900
C969        C  0.72456626  0.73629997  0.30748861     1.02700
Cr970      Cr  0.66302909  0.67737430  0.32923555     1.93700
Cr971      Cr  0.60584226  0.71987568  0.33110569     1.93200
Cr972      Cr  0.67606985  0.77080174  0.35894122     1.39100
O973        O  0.65146640  0.73002627  0.33496562    -1.23000
C974        C  0.68272639  0.83194493  0.09005522     0.30100
C975        C  0.64873311  0.76955413  0.13119516     0.30100
C976        C  0.66175796  0.85405476  0.11997144    -0.06100
C977        C  0.65378364  0.80050112  0.07266742    -0.06900
C978        C  0.70719898  0.79503573  0.10883574    -0.06700
C979        C  0.64247010  0.82148805  0.13809736    -0.06100
C980        C  0.63527263  0.76794091  0.09347546    -0.06900
C981        C  0.68845396  0.76109427  0.12634432    -0.06800
C982        C  0.62215726  0.84383039  0.16173201    -0.32100
N983        N  0.63130188  0.88981877  0.16214364     0.14400
C984        C  0.65546637  0.89670391  0.13665463    -0.32100
H985        H  0.66968690  0.92955229  0.13316548     0.16300
C986        C  0.60906958  0.74756961  0.07224186    -0.31100
N987        N  0.61147309  0.76802902  0.04021910     0.13100
C988        C  0.63903888  0.79936131  0.04051208    -0.31100
C989        C  0.71181048  0.73029186  0.14229145    -0.31400
N990        N  0.74521010  0.74815920  0.14016293     0.13600
H991        H  0.70429763  0.70172556  0.15940611     0.16200
C992        C  0.74282069  0.78768126  0.11954121    -0.31400
H993        H  0.76515545  0.81176930  0.11507739     0.16200
H994        H  0.64796803  0.81988136  0.01853682     0.16200
H995        H  0.60587907  0.82641670  0.18093740     0.16300
H996        H  0.58952434  0.72095940  0.07950500     0.16200
O997        O  0.74654959  0.94386138  0.15461318    -0.85200
O998        O  0.80008498  0.89408795  0.18350325    -0.82300
C999        C  0.83094711  0.88604977  0.19435234     0.98200
O1000       O  0.85505483  0.91886056  0.19230628    -0.82300
O1001       O  0.85813916  0.48167161  0.13155542    -0.85000
C1002       C  0.84942924  0.51558960  0.11191229     1.02700
O1003       O  0.82996435  0.54674003  0.12371575    -0.77700
O1004       O  0.77410325  0.98793618  0.11554295    -0.77900
C1005       C  0.75414720  0.95446116  0.12324302     1.02700
O1006       O  0.75524664  0.00505579  0.21826794    -0.85200
O1007       O  0.80796835  0.94930524  0.24195041    -0.82300
C1008       C  0.83575667  0.97259052  0.25096983     0.98200
O1009       O  0.85153086  0.49822872  0.23210528    -0.82300
O1010       O  0.85727023  0.56297837  0.17999688    -0.84900
C1011       C  0.83263315  0.59162521  0.18651252     1.02700
O1012       O  0.80064929  0.57901661  0.18529242    -0.77800
O1013       O  0.73651204  0.53066901  0.17282018    -0.77900
C1014       C  0.73068753  0.51984515  0.20400310     1.02700
Cr1015     Cr  0.77819646  0.95100843  0.19822397     1.93700
Cr1016     Cr  0.85289833  0.48983785  0.18268721     1.93200
Cr1017     Cr  0.78660806  0.53449847  0.15193444     1.39100
O1018       O  0.80576790  0.99016960  0.17597355    -1.23000
O1019       O  0.66561213  0.95575341  0.33135985    -0.85200
O1020       O  0.62906763  0.53021454  0.31997251    -0.82300
C1021       C  0.62251510  0.56582506  0.30230322     0.98200
O1022       O  0.61542762  0.56338399  0.27004568    -0.82300
O1023       O  0.67285435  0.53481636  0.22865194    -0.85000
C1024       C  0.69508056  0.50697420  0.21695353     1.02700
O1025       O  0.68943028  0.96315443  0.21734044    -0.77700
O1026       O  0.70199914  0.95797588  0.28781888    -0.77900
C1027       C  0.69649732  0.96493443  0.31935854     1.02700
O1028       O  0.60032446  0.89806473  0.30615931    -0.85200
O1029       O  0.56778530  0.97976444  0.29232239    -0.82300
C1030       C  0.55287313  0.98295173  0.26291324     0.98200
O1031       O  0.57077949  0.98691500  0.23579083    -0.82300
O1032       O  0.62619865  0.96184328  0.19229622    -0.84900
C1033       C  0.62886380  0.91721088  0.19321109     1.02700
O1034       O  0.63369560  0.89668905  0.22200195    -0.77800
O1035       O  0.65250158  0.88027194  0.28998038    -0.77900
C1036       C  0.62352862  0.86831074  0.30368944     1.02700
Cr1037     Cr  0.61685781  0.96562991  0.30782595     1.93700
Cr1038     Cr  0.62188838  0.51118536  0.23529434     1.93200
Cr1039     Cr  0.66682895  0.92734726  0.25532760     1.39100
O1040       O  0.63465449  0.96779536  0.26535922    -1.23000
O1041       O  0.80176180  0.76038451  0.16662693    -0.85200
O1042       O  0.85639747  0.81026716  0.19882463    -0.82300
C1043       C  0.83660285  0.83925382  0.21222985     0.98200
O1044       O  0.81955947  0.82678879  0.23933664    -0.82300
O1045       O  0.78070699  0.76610363  0.28879857    -0.85000
C1046       C  0.75220984  0.74360262  0.28092289     1.02700
O1047       O  0.74871945  0.72375119  0.25200014    -0.77700
O1048       O  0.76995176  0.69973511  0.18517910    -0.77900
C1049       C  0.77381307  0.73517249  0.16451436     1.02700
O1050       O  0.83939537  0.67416199  0.17760322    -0.85200
O1051       O  0.88899360  0.72451859  0.21782686    -0.82300
C1052       C  0.90169580  0.74933239  0.24195673     0.98200
O1053       O  0.88190390  0.77454517  0.25943666    -0.82300
O1054       O  0.84066307  0.71192174  0.30193893    -0.84900
C1055       C  0.82034872  0.67539833  0.30584133     1.02700
O1056       O  0.79680845  0.66580529  0.28345045    -0.77800
O1057       O  0.82703704  0.64525692  0.22718970    -0.77900
C1058       C  0.83772910  0.63924728  0.19790112     1.02700
Cr1059     Cr  0.84457165  0.74139849  0.19377121     1.93700
Cr1060     Cr  0.82998655  0.76824616  0.26928598     1.93200
Cr1061     Cr  0.78812716  0.68715575  0.23532109     1.39100
O1062       O  0.81985786  0.73352724  0.23302226    -1.23000
C1063       C  0.17412875  0.59050573  0.11190660     0.30100
C1064       C  0.13187832  0.53113005  0.14898578     0.30100
C1065       C  0.15093089  0.61496500  0.13870106    -0.06100
C1066       C  0.14752916  0.56079818  0.09182301    -0.06900
C1067       C  0.19439157  0.55391464  0.13475941    -0.06700
C1068       C  0.12940526  0.58443228  0.15784432    -0.06100
C1069       C  0.12550172  0.53085604  0.10985189    -0.06900
C1070       C  0.17294963  0.52323396  0.15371580    -0.06800
C1071       C  0.11955238  0.60953768  0.18651017    -0.32100
N1072       N  0.13198520  0.65455080  0.18476111     0.14400
C1073       C  0.15322367  0.65707849  0.15688553    -0.32100
H1074       H  0.17172699  0.68581542  0.15234166     0.16300
C1075       C  0.10186090  0.51083856  0.08571756    -0.31100
N1076       N  0.10988446  0.52908828  0.05410970     0.13100
C1077       C  0.13803483  0.55892309  0.05786402    -0.31100
C1078       C  0.19719349  0.99538811  0.17354346    -0.31400
N1079       N  0.23138508  0.00946089  0.16766351     0.13600
H1080       H  0.19022150  0.96975994  0.19316288     0.16200
C1081       C  0.22954383  0.54558759  0.14509165    -0.31400
H1082       H  0.25282971  0.56502771  0.13738162     0.16200
H1083       H  0.15028513  0.57883227  0.03711966     0.16200
H1084       H  0.10785763  0.59466803  0.20961936     0.16300
H1085       H  0.08098983  0.98271196  0.09076147     0.16200
O1086       O  0.25571880  0.68438236  0.16969220    -0.85200
O1087       O  0.31591949  0.64498951  0.18868740    -0.82300
C1088       C  0.34423003  0.63710197  0.20428788     0.98200
O1089       O  0.36691060  0.67109052  0.20775501    -0.82300
O1090       O  0.36422571  0.73587863  0.14866781    -0.85000
C1091       C  0.35299809  0.76731745  0.12847564     1.02700
O1092       O  0.33147803  0.79671670  0.13930639    -0.77700
O1093       O  0.28084658  0.73353096  0.13307224    -0.77900
C1094       C  0.26272398  0.69790522  0.13900775     1.02700
O1095       O  0.25956001  0.73180674  0.23745333    -0.85200
O1096       O  0.31911360  0.68727342  0.25532005    -0.82300
C1097       C  0.34174378  0.71723147  0.26690750     0.98200
O1098       O  0.35766208  0.74645113  0.24779067    -0.82300
O1099       O  0.35586327  0.81718432  0.19765608    -0.84900
C1100       C  0.32824646  0.84183234  0.20360093     1.02700
O1101       O  0.29790402  0.82419520  0.20101336    -0.77800
O1102       O  0.24046594  0.76812752  0.19136850    -0.77900
C1103       C  0.23628167  0.75572491  0.22280520     1.02700
Cr1104     Cr  0.28858029  0.68982518  0.21170196     1.93700
Cr1105     Cr  0.35889149  0.74265294  0.19892376     1.93200
Cr1106     Cr  0.28909237  0.77793724  0.16803836     1.39100
O1107       O  0.31235821  0.73699019  0.19389162    -1.23000
C1108       C  0.26673052  0.84580465  0.43169120     0.30100
C1109       C  0.30522796  0.78702271  0.39495543     0.30100
C1110       C  0.28955953  0.87073246  0.40320728    -0.06100
C1111       C  0.29413060  0.81653721  0.45194225    -0.06900
C1112       C  0.24430626  0.80844192  0.41133166    -0.06700
C1113       C  0.31100104  0.84106654  0.38649978    -0.06100
C1114       C  0.31448325  0.78591582  0.43362598    -0.06900
C1115       C  0.26427488  0.77698748  0.39480218    -0.06800
C1116       C  0.32741607  0.86715853  0.35999986    -0.32100
N1117       N  0.31436457  0.91097634  0.35748362     0.14400
C1118       C  0.29013936  0.91270313  0.38331063    -0.32100
H1119       H  0.27175031  0.94070347  0.38560849     0.16300
C1120       C  0.33993854  0.76924800  0.45693118    -0.31100
N1121       N  0.33483954  0.78897137  0.48808730     0.13100
C1122       C  0.30699430  0.81757979  0.48503182    -0.31100
C1123       C  0.24122508  0.74848183  0.37507977    -0.31400
N1124       N  0.20779827  0.76412154  0.37645004     0.13600
H1125       H  0.24901566  0.72150313  0.35778842     0.16200
C1126       C  0.20944818  0.80151240  0.39809231    -0.31400
H1127       H  0.18738177  0.82386830  0.40210914     0.16200
H1128       H  0.29728983  0.83872377  0.50546436     0.16200
H1129       H  0.34447257  0.85305476  0.34105878     0.16300
H1130       H  0.36145195  0.74666416  0.45171960     0.16200
O1131       O  0.17157857  0.94177724  0.38272894    -0.85200
O1132       O  0.16556306  0.89827978  0.32114325    -0.82300
C1133       C  0.13205129  0.89153962  0.31915219     0.98200
O1134       O  0.10960440  0.92316636  0.33014430    -0.82300
O1135       O  0.10465219  0.48621559  0.39152927    -0.85000
C1136       C  0.11567304  0.51535435  0.41376098     1.02700
O1137       O  0.13850475  0.54775567  0.40604972    -0.77700
O1138       O  0.20292364  0.00491110  0.39509955    -0.77900
C1139       C  0.19141194  0.96498343  0.40340534     1.02700
O1140       O  0.21208672  0.97600063  0.32331674    -0.85200
O1141       O  0.15047609  0.97245019  0.28353533    -0.82300
C1142       C  0.12115487  0.98859306  0.27261009     0.98200
O1143       O  0.09973747  0.50993789  0.29229944    -0.82300
O1144       O  0.09645688  0.57039141  0.34638240    -0.84900
C1145       C  0.11958374  0.60384421  0.34076651     1.02700
O1146       O  0.15216675  0.59854297  0.34454509    -0.77800
O1147       O  0.21226046  0.55225036  0.33174731    -0.77900
C1148       C  0.22418282  0.51649780  0.31720070     1.02700
Cr1149     Cr  0.16204261  0.95932182  0.33340458     1.93700
Cr1150     Cr  0.10435828  0.49890175  0.34136899     1.93200
Cr1151     Cr  0.17470832  0.54910732  0.36788762     1.39100
O1152       O  0.15091081  0.01088971  0.34336986    -1.23000
O1153       O  0.15135897  0.77375813  0.34981731    -0.85200
O1154       O  0.09813823  0.82008395  0.31488300    -0.82300
C1155       C  0.12065650  0.84756673  0.30149938     0.98200
O1156       O  0.13673034  0.83497109  0.27473572    -0.82300
O1157       O  0.17496678  0.77639779  0.22887645    -0.85000
C1158       C  0.20338752  0.76133538  0.24263399     1.02700
O1159       O  0.20292526  0.74380946  0.27274378    -0.77700
O1160       O  0.18037400  0.71195861  0.33577742    -0.77900
C1161       C  0.17854722  0.74928744  0.35331061     1.02700
O1162       O  0.11083242  0.68566964  0.34255880    -0.85200
O1163       O  0.06313446  0.73349261  0.30000609    -0.82300
C1164       C  0.05154785  0.75649251  0.27428773     0.98200
O1165       O  0.07223544  0.78140800  0.25559325    -0.82300
O1166       O  0.11313096  0.72012292  0.21678875    -0.84900
C1167       C  0.13410834  0.68612312  0.21390726     1.02700
O1168       O  0.15771319  0.67912090  0.23687044    -0.77800
O1169       O  0.12516517  0.65368376  0.29517651    -0.77900
C1170       C  0.11319980  0.64926552  0.32478319     1.02700
Cr1171     Cr  0.10773798  0.75222113  0.32362787     1.93700
Cr1172     Cr  0.12455752  0.77685651  0.24704511     1.93200
Cr1173     Cr  0.16403696  0.69996433  0.28577754     1.39100
O1174       O  0.13230418  0.74337365  0.28510065    -1.23000
O1175       O  0.29255558  0.01568899  0.18454109    -0.85200
O1176       O  0.35698166  0.55748681  0.20752836    -0.82300
C1177       C  0.34551019  0.59127927  0.22336622     0.98200
O1178       O  0.32963085  0.58389248  0.25184531    -0.82300
O1179       O  0.28422035  0.53556557  0.30224874    -0.85000
C1180       C  0.25370913  0.51930352  0.29320519     1.02700
O1181       O  0.24952230  0.99747063  0.26573745    -0.77700
O1182       O  0.26164011  0.95616101  0.20481168    -0.77900
C1183       C  0.26310221  0.99323534  0.18628134     1.02700
O1184       O  0.32788748  0.92455653  0.19303460    -0.85200
O1185       O  0.38309210  0.96972476  0.22572632    -0.82300
C1186       C  0.40008637  0.99051116  0.24964361     0.98200
O1187       O  0.38415979  0.51825955  0.27096968    -0.82300
O1188       O  0.33866264  0.96973205  0.31806333    -0.84900
C1189       C  0.31430612  0.93910294  0.32528347     1.02700
O1190       O  0.28953524  0.93143016  0.30351227    -0.77800
O1191       O  0.31377447  0.89736003  0.24321573    -0.77900
C1192       C  0.32711339  0.89085831  0.21444878     1.02700
Cr1193     Cr  0.33791386  0.99150807  0.20629641     1.93700
Cr1194     Cr  0.33299526  0.52508963  0.28286293     1.93200
Cr1195     Cr  0.28181549  0.94852238  0.25342036     1.39100
O1196       O  0.31786937  0.98850695  0.24795573    -1.23000
C1197       C  0.26046551  0.92239920  0.45939737    -0.12200
C1198       C  0.24774787  0.87619684  0.45623189     0.04800
C1199       C  0.21135970  0.86778186  0.46106793    -0.07500
C1200       C  0.18898993  0.90105898  0.44651689    -0.08200
C1201       C  0.20391891  0.94422844  0.43591595    -0.02800
C1202       C  0.23763347  0.95792083  0.44977772     0.04100
N1203       N  0.25096991  0.00526293  0.44803577     0.66600
H1204       H  0.28870554  0.93022310  0.46172440     0.15500
H1205       H  0.16223742  0.89080338  0.43880029     0.15200
N1206       N  0.19773610  0.82405886  0.47509025     0.74300
O1207       O  0.24653472  0.03162059  0.47320969    -0.39200
O1208       O  0.27352746  0.01713899  0.42583945    -0.39100
O1209       O  0.21875514  0.79342226  0.48631527    -0.39800
O1210       O  0.16518440  0.81908101  0.48147170    -0.39900
C1211       C  0.30311319  0.77610640  0.33470900    -0.12200
C1212       C  0.31870997  0.75975849  0.36555500     0.04800
C1213       C  0.34273611  0.72267450  0.36422154    -0.07500
C1214       C  0.35107860  0.70566712  0.33142191    -0.08200
C1215       C  0.33923296  0.73047259  0.30190468    -0.02800
C1216       C  0.31758192  0.76809695  0.30467504     0.04100
N1217       N  0.31555202  0.80409805  0.27909428     0.66600
H1218       H  0.28304127  0.80264467  0.33411132     0.15500
H1219       H  0.36727327  0.67526715  0.32907436     0.15200
N1220       N  0.35700416  0.70072322  0.39450228     0.74300
O1221       O  0.28562094  0.81990185  0.27059063    -0.39200
O1222       O  0.34312839  0.82961815  0.27536348    -0.39100
O1223       O  0.34032517  0.66615476  0.40761806    -0.39800
O1224       O  0.38960346  0.70670844  0.40177272    -0.39900
C1225       C  0.35027479  0.72781313  0.07241166    -0.12200
C1226       C  0.36118612  0.76709378  0.09158241     0.04800
C1227       C  0.37173566  0.80850724  0.07424805    -0.07500
C1228       C  0.36598922  0.81248450  0.03851188    -0.08200
C1229       C  0.35059010  0.77492505  0.01985926    -0.02800
C1230       C  0.34461699  0.73157808  0.03668982     0.04100
N1231       N  0.32736937  0.69353168  0.01892678     0.66600
H1232       H  0.34248116  0.69600467  0.08538606     0.15500
H1233       H  0.37111739  0.84574900  0.02563956     0.15200
N1234       N  0.38722133  0.84697861  0.09295091     0.74300
O1235       O  0.34496104  0.65869774  0.01079299    -0.39200
O1236       O  0.31859963  0.68118295  0.51122986    -0.39100
O1237       O  0.41738993  0.84305779  0.10736449    -0.39800
O1238       O  0.36907360  0.88220819  0.09885875    -0.39900
C1239       C  0.22923005  0.60758878  0.08024250    -0.12200
C1240       C  0.19444582  0.62031246  0.08600526     0.04800
C1241       C  0.18794504  0.66828644  0.08421448    -0.07500
C1242       C  0.21364504  0.69773516  0.09881015    -0.08200
C1243       C  0.24549181  0.67787218  0.10959151    -0.02800
C1244       C  0.25619274  0.63605638  0.09459814     0.04100
N1245       N  0.29203685  0.62004422  0.09647944     0.66600
H1246       H  0.23469486  0.57169817  0.07409019     0.15500
H1247       H  0.20739863  0.73328105  0.10529413     0.15200
N1248       N  0.15470615  0.68563764  0.07203380     0.74300
O1249       O  0.30233836  0.59162850  0.07455013    -0.39200
O1250       O  0.31345957  0.63333236  0.12001058    -0.39100
O1251       O  0.13601467  0.70877339  0.09172231    -0.39800
O1252       O  0.14913295  0.68890200  0.03993379    -0.39900
C1253       C  0.07903791  0.51649423  0.18543669    -0.12200
C1254       C  0.10648207  0.49722956  0.16707817     0.04800
C1255       C  0.12231525  0.95242510  0.18105552    -0.07500
C1256       C  0.12560423  0.94870811  0.21691475    -0.08200
C1257       C  0.10705655  0.48394612  0.23629891    -0.02800
C1258       C  0.07954034  0.51046690  0.22118253     0.04100
N1259       N  0.05445664  0.53384665  0.24141938     0.66600
H1260       H  0.06278104  0.54337245  0.17371409     0.15500
H1261       H  0.14252713  0.92265708  0.22876210     0.15200
N1262       N  0.13703993  0.91792644  0.15939837     0.74300
O1263       O  0.05857550  0.57687723  0.24776820    -0.39200
O1264       O  0.02963925  0.51043907  0.25534157    -0.39100
O1265       O  0.14327666  0.87756397  0.17144719    -0.39800
O1266       O  0.13933255  0.92523091  0.12737331    -0.39900
C1267       C  0.09142289  0.55422881  0.46428629    -0.12200
C1268       C  0.10136449  0.51248830  0.44915264     0.04800
C1269       C  0.09949029  0.97338573  0.47030665    -0.07500
C1270       C  0.09665044  0.97776737  0.50622777    -0.08200
C1271       C  0.09365619  0.52085202  0.02086294    -0.02800
C1272       C  0.08417991  0.55525681  0.49940671     0.04100
N1273       N  0.07112499  0.59664078  0.51417418     0.66600
H1274       H  0.08941751  0.58604785  0.44882637     0.15500
H1275       H  0.10291161  0.94453864  0.02261444     0.15200
N1276       N  0.10043308  0.92718080  0.45624695     0.74300
O1277       O  0.08937452  0.63431231  0.51365666    -0.39200
O1278       O  0.05867468  0.60600149  0.03839269    -0.39100
O1279       O  0.11024184  0.89347980  0.47533088    -0.39800
O1280       O  0.08252738  0.91777096  0.42923234    -0.39900
C1281       C  0.95195857  0.75638940  0.28381064    -0.12200
C1282       C  0.94014772  0.75049676  0.24959373     0.04800
C1283       C  0.96529145  0.74773816  0.22344045    -0.07500
C1284       C  0.00152887  0.75054338  0.23197553    -0.08200
C1285       C  0.01323898  0.75526606  0.26629741    -0.02800
C1286       C  0.98813483  0.75853042  0.29238172     0.04100
N1287       N  0.99888313  0.76626974  0.32743472     0.66600
H1288       H  0.93298065  0.75925456  0.30410403     0.15500
H1289       H  0.02062096  0.74843199  0.21171456     0.15200
N1290       N  0.95456296  0.74395843  0.18801460     0.74300
O1291       O  0.00029125  0.80753240  0.33860766    -0.39200
O1292       O  0.99865324  0.73224114  0.34859445    -0.39100
O1293       O  0.95477719  0.78018292  0.16893777    -0.39800
O1294       O  0.95239190  0.70410937  0.17446000    -0.39900
C1295       C  0.45489271  0.49167735  0.28643409    -0.12200
C1296       C  0.43888763  0.98532291  0.25300823     0.04800
C1297       C  0.45975918  0.97485387  0.22455362    -0.07500
C1298       C  0.49666760  0.97387445  0.22846890    -0.08200
C1299       C  0.51359396  0.98269540  0.26039008    -0.02800
C1300       C  0.49174921  0.49093452  0.29089907     0.04100
N1301       N  0.50639912  0.49526010  0.32504842     0.66600
H1302       H  0.43872234  0.49486889  0.30890141     0.15500
H1303       H  0.51214773  0.96642033  0.20619766     0.15200
N1304       N  0.44419948  0.96721041  0.19109562     0.74300
O1305       O  0.51115498  0.53546710  0.33764029    -0.39200
O1306       O  0.50686787  0.45970838  0.34479089    -0.39100
O1307       O  0.44474426  0.00006093  0.16894496    -0.39800
O1308       O  0.43694474  0.92590411  0.18162377    -0.39900
C1309       C  0.70569139  0.94382416  0.08091670    -0.12200
C1310       C  0.73850474  0.93030269  0.09456766     0.04800
C1311       C  0.75610486  0.89441343  0.07826232    -0.07500
C1312       C  0.73532230  0.86195017  0.05982835    -0.08200
C1313       C  0.69873369  0.86483629  0.06316786    -0.02800
C1314       C  0.68605342  0.91063452  0.06213281     0.04100
N1315       N  0.65172589  0.92087479  0.04816811     0.66600
H1316       H  0.69434027  0.97684251  0.08742851     0.15500
H1317       H  0.74693763  0.83006888  0.05127086     0.15200
N1318       N  0.79382308  0.89246432  0.07819728     0.74300
O1319       O  0.64940904  0.93985389  0.01865544    -0.39200
O1320       O  0.62533221  0.92084795  0.06745408    -0.39100
O1321       O  0.81096470  0.87940290  0.10480246    -0.39800
O1322       O  0.80922246  0.89635772  0.04981088    -0.39900
C1323       C  0.65571899  0.74475639  0.22544174    -0.12200
C1324       C  0.62923137  0.71175448  0.22978376     0.04800
C1325       C  0.60754816  0.69499092  0.20243914    -0.07500
C1326       C  0.61377900  0.71266564  0.16919214    -0.08200
C1327       C  0.64087229  0.74663181  0.16482574    -0.02800
C1328       C  0.66213231  0.76281872  0.19424649     0.04100
N1329       N  0.69069479  0.79782852  0.19361153     0.66600
H1330       H  0.67168717  0.75815929  0.24714166     0.15500
H1331       H  0.59767496  0.70071431  0.14740848     0.15200
N1332       N  0.58009951  0.66042465  0.20800960     0.74300
O1333       O  0.72153618  0.78475902  0.20136376    -0.39200
O1334       O  0.68401931  0.83926488  0.20117943    -0.39100
O1335       O  0.54827409  0.67266610  0.20870006    -0.39800
O1336       O  0.58675884  0.61764058  0.20524646    -0.39900
C1337       C  0.59052786  0.79005394  0.44906521    -0.12200
C1338       C  0.59883550  0.74583448  0.43733116     0.04800
C1339       C  0.59691055  0.70675413  0.46054929    -0.07500
C1340       C  0.59526234  0.71539032  0.49607496    -0.08200
C1341       C  0.59248638  0.75711643  0.00869755    -0.02800
C1342       C  0.58588864  0.79741319  0.48397218     0.04100
N1343       N  0.57841775  0.84344463  0.49510624     0.66600
H1344       H  0.58953315  0.81965398  0.43122958     0.15500
H1345       H  0.59858033  0.68293222  0.01378925     0.15200
N1346       N  0.59824333  0.65905596  0.44930361     0.74300
O1347       O  0.54691791  0.85264308  0.50203493    -0.39200
O1348       O  0.59875766  0.87334322  0.99037581    -0.39100
O1349       O  0.60762187  0.62735011  0.47040974    -0.39800
O1350       O  0.58210186  0.64687209  0.42189969    -0.39900
C1351       C  0.76219800  0.64377732  0.43310913    -0.12200
C1352       C  0.74840358  0.59997871  0.42226753     0.04800
C1353       C  0.71370604  0.58691119  0.43218261    -0.07500
C1354       C  0.69048495  0.62286153  0.43806111    -0.08200
C1355       C  0.70280961  0.66906478  0.43245318    -0.02800
C1356       C  0.73874089  0.67841077  0.44083589     0.04100
N1357       N  0.75200504  0.72459125  0.44844053     0.66600
H1358       H  0.79036231  0.65221670  0.43258105     0.15500
H1359       H  0.66246620  0.61465100  0.43880745     0.15200
N1360       N  0.70294658  0.53914725  0.43890934     0.74300
O1361       O  0.75879856  0.73474447  0.47945639    -0.39200
O1362       O  0.76573868  0.74958771  0.42490655    -0.39100
O1363       O  0.72079328  0.51529602  0.46040935    -0.39800
O1364       O  0.67196073  0.52490188  0.43053965    -0.39900
C1365       C  0.83646126  0.93353782  0.30842582    -0.12200
C1366       C  0.85077804  0.46402473  0.28744009     0.04800
C1367       C  0.87585480  0.49681272  0.30121223    -0.07500
C1368       C  0.87402483  0.50721912  0.33613073    -0.08200
C1369       C  0.84692999  0.48568547  0.35529444    -0.02800
C1370       C  0.83753093  0.94205026  0.34370731     0.04100
N1371       N  0.82384389  0.90773817  0.36756346     0.66600
H1372       H  0.82200493  0.90301865  0.29862260     0.15500
H1373       H  0.88904287  0.53704556  0.34625923     0.15200
N1374       N  0.90074533  0.52168276  0.27985663     0.74300
O1375       O  0.79273369  0.89093102  0.36345871    -0.39200
O1376       O  0.84544122  0.88617849  0.38694694    -0.39100
O1377       O  0.89976093  0.56562019  0.27626154    -0.39800
O1378       O  0.92239817  0.49924369  0.26276043    -0.39900
C1379       C  0.86119613  0.98179974  0.01700038    -0.12200
C1380       C  0.84879223  0.52460260  0.00222638     0.04800
C1381       C  0.84635329  0.56524566  0.02222935    -0.07500
C1382       C  0.85055533  0.56226991  0.05790242    -0.08200
C1383       C  0.85876011  0.51996447  0.07474142    -0.02800
C1384       C  0.86775683  0.97899845  0.05315110     0.04100
N1385       N  0.88297497  0.93750034  0.06821916     0.66600
H1386       H  0.86312132  0.95094474  0.00143676     0.15500
H1387       H  0.84545088  0.59311755  0.07265366     0.15200
N1388       N  0.83785795  0.60955073  0.00682798     0.74300
O1389       O  0.88153157  0.89954113  0.05197758    -0.39200
O1390       O  0.90465717  0.94119819  0.09339574    -0.39100
O1391       O  0.81033004  0.62987021  0.01567551    -0.39800
O1392       O  0.86155288  0.63273956  0.99106642    -0.39900
C1393       C  0.76771811  0.56893286  0.90409405     0.30100
C1394       C  0.81668970  0.51843243  0.87227265     0.30100
C1395       C  0.79377675  0.59820838  0.88088758    -0.06100
C1396       C  0.79208630  0.54064423  0.92743666    -0.06900
C1397       C  0.75172916  0.53202387  0.87907528    -0.06700
C1398       C  0.81885054  0.57253605  0.86456343    -0.06100
C1399       C  0.81790489  0.51569473  0.91205655    -0.06900
C1400       C  0.77661626  0.50645348  0.86227190    -0.06800
C1401       C  0.83209278  0.60197989  0.83837488    -0.32100
N1402       N  0.81790265  0.64515750  0.83914110     0.14400
C1403       C  0.79296735  0.64202622  0.86406771    -0.32100
H1404       H  0.77277695  0.66760282  0.86713515     0.16300
C1405       C  0.84282480  0.50561625  0.93830543    -0.31100
N1406       N  0.83127262  0.52264680  0.96861634     0.13100
C1407       C  0.79982033  0.54276627  0.96186839    -0.31100
C1408       C  0.75841035  0.97668730  0.83884242    -0.31400
N1409       N  0.72297689  0.98296139  0.84195958     0.13600
H1410       H  0.76905780  0.95531671  0.81921641     0.15800
C1411       C  0.71831979  0.51910823  0.86544121    -0.31400
H1412       H  0.69355697  0.53521378  0.87079070     0.16200
H1413       H  0.78449784  0.56063112  0.98046277     0.16200
H1414       H  0.84739811  0.59094633  0.81688027     0.16300
H1415       H  0.86925146  0.98854030  0.93411643     0.16200
O1416       O  0.66598865  0.66324190  0.87761207    -0.85200
O1417       O  0.66109270  0.61624603  0.81936959    -0.82300
C1418       C  0.62753172  0.61057148  0.81569413     0.98200
O1419       O  0.60444217  0.64337768  0.82321011    -0.82300
O1420       O  0.59689762  0.71284166  0.88107089    -0.85000
C1421       C  0.60796737  0.74299628  0.90246136     1.02700
O1422       O  0.63172613  0.77381945  0.89454165    -0.77700
O1423       O  0.69460459  0.72754143  0.89171865    -0.77900
C1424       C  0.68388912  0.68694512  0.89929983     1.02700
O1425       O  0.70772824  0.69494747  0.81423990    -0.85200
O1426       O  0.64778953  0.68549434  0.77832371    -0.82300
C1427       C  0.62105166  0.70378698  0.76404795     0.98200
O1428       O  0.59859853  0.72402269  0.78102039    -0.82300
O1429       O  0.59448163  0.79293151  0.82864884    -0.84900
C1430       C  0.62007989  0.82303401  0.82236097     1.02700
O1431       O  0.65113815  0.81600610  0.83182861    -0.77800
O1432       O  0.70961169  0.77069121  0.82591550    -0.77900
C1433       C  0.72036051  0.73652773  0.80891023     1.02700
Cr1434     Cr  0.65777191  0.67744885  0.82795455     1.93700
Cr1435     Cr  0.60054621  0.71982003  0.83053748     1.93200
Cr1436     Cr  0.67030687  0.77003352  0.85980542     1.39100
O1437       O  0.64615812  0.72978324  0.83487934    -1.23000
C1438       C  0.68291158  0.83335339  0.59047666     0.30100
C1439       C  0.64756112  0.77154618  0.63094653     0.30100
C1440       C  0.66181168  0.85589807  0.62011627    -0.06100
C1441       C  0.65374979  0.80280518  0.57268060    -0.06900
C1442       C  0.70658480  0.79577374  0.60945577    -0.06700
C1443       C  0.64185104  0.82361434  0.63782879    -0.06100
C1444       C  0.63455423  0.77057631  0.59313583    -0.06900
C1445       C  0.68722411  0.76214821  0.62667617    -0.06800
C1446       C  0.62109179  0.84622026  0.66089391    -0.32100
N1447       N  0.63066809  0.89202583  0.66162502     0.14400
C1448       C  0.65547826  0.89862755  0.63669511    -0.32100
H1449       H  0.67007186  0.93127634  0.63363644     0.16300
C1450       C  0.60800778  0.75154391  0.57172118    -0.31100
N1451       N  0.61080397  0.77258815  0.53994366     0.13100
C1452       C  0.63891683  0.80300517  0.54057672    -0.31100
C1453       C  0.71006718  0.73135471  0.64337831    -0.31400
N1454       N  0.74356280  0.74909488  0.64206121     0.13600
H1455       H  0.70200432  0.70301959  0.66052493     0.16200
C1456       C  0.74181969  0.78850300  0.62131155    -0.31400
H1457       H  0.76422997  0.81257740  0.61760069     0.16200
H1458       H  0.64838058  0.82345668  0.51878467     0.16200
H1459       H  0.60414442  0.82901861  0.67964349     0.16300
H1460       H  0.58810781  0.72521731  0.57862988     0.16200
O1461       O  0.74508990  0.94534316  0.65647822    -0.85200
O1462       O  0.79786788  0.89483458  0.68606251    -0.82300
C1463       C  0.82873916  0.88647593  0.69675008     0.98200
O1464       O  0.85317236  0.91878094  0.69392129    -0.82300
O1465       O  0.85618911  0.48353738  0.63165133    -0.85000
C1466       C  0.84755593  0.51717840  0.61170594     1.02700
O1467       O  0.82748724  0.54803329  0.62304234    -0.77700
O1468       O  0.77275280  0.98903210  0.61720824    -0.77900
C1469       C  0.75284059  0.95568199  0.62510845     1.02700
O1470       O  0.75443380  0.00739575  0.71967575    -0.85200
O1471       O  0.80641154  0.95106652  0.74365595    -0.82300
C1472       C  0.83466246  0.97345739  0.75243319     0.98200
O1473       O  0.84919306  0.50019439  0.73205428    -0.82300
O1474       O  0.85429855  0.56461919  0.68015932    -0.84900
C1475       C  0.82950798  0.59294178  0.68686567     1.02700
O1476       O  0.79751269  0.58071648  0.68427764    -0.77800
O1477       O  0.73376329  0.53177630  0.67157661    -0.77900
C1478       C  0.72785108  0.52194669  0.70285253     1.02700
Cr1479     Cr  0.77669460  0.95260990  0.70005814     1.93700
Cr1480     Cr  0.85038056  0.49155682  0.68269676     1.93200
Cr1481     Cr  0.78393572  0.53556265  0.65117688     1.39100
O1482       O  0.80459864  0.99095879  0.67738887    -1.23000
O1483       O  0.66376507  0.95346348  0.83178343    -0.85200
O1484       O  0.62506882  0.53051449  0.81804074    -0.82300
C1485       C  0.61783571  0.56572123  0.80012577     0.98200
O1486       O  0.61108830  0.56269460  0.76782075    -0.82300
O1487       O  0.66947066  0.53573470  0.72685429    -0.85000
C1488       C  0.69229563  0.50846139  0.71547302     1.02700
O1489       O  0.68877245  0.96394914  0.71840638    -0.77700
O1490       O  0.70029429  0.95632870  0.78848728    -0.77900
C1491       C  0.69455063  0.96330606  0.81992018     1.02700
O1492       O  0.59765133  0.89855399  0.80586032    -0.85200
O1493       O  0.56689020  0.98150978  0.79272864    -0.82300
C1494       C  0.55201794  0.98321886  0.76325241     0.98200
O1495       O  0.57005299  0.98673265  0.73620539    -0.82300
O1496       O  0.62569577  0.96348612  0.69251568    -0.84900
C1497       C  0.62806684  0.91884044  0.69291262     1.02700
O1498       O  0.63228674  0.89762794  0.72148201    -0.77800
O1499       O  0.64942418  0.87910843  0.78934891    -0.77900
C1500       C  0.62020825  0.86799701  0.80311330     1.02700
Cr1501     Cr  0.61557104  0.96542836  0.80819123     1.93700
Cr1502     Cr  0.61889225  0.51032590  0.73344526     1.93200
Cr1503     Cr  0.66522138  0.92692974  0.75548654     1.39100
O1504       O  0.63344903  0.96768642  0.76578007    -1.23000
O1505       O  0.79949204  0.76152560  0.66966150    -0.85200
O1506       O  0.85432678  0.81081431  0.70234506    -0.82300
C1507       C  0.83417929  0.83985077  0.71509988     0.98200
O1508       O  0.81673985  0.82751842  0.74199294    -0.82300
O1509       O  0.77698660  0.76723245  0.79130617    -0.85000
C1510       C  0.74866639  0.74452394  0.78301569     1.02700
O1511       O  0.74574995  0.72483784  0.75404398    -0.77700
O1512       O  0.76734927  0.70074147  0.68755869    -0.77900
C1513       C  0.77161931  0.73621205  0.66700527     1.02700
O1514       O  0.83679819  0.67547722  0.68022476    -0.85200
O1515       O  0.88610236  0.72471126  0.72130654    -0.82300
C1516       C  0.89889801  0.74931200  0.74551042     0.98200
O1517       O  0.87911232  0.77446469  0.76317443    -0.82300
O1518       O  0.83650849  0.71303186  0.80539429    -0.84900
C1519       C  0.81609278  0.67659660  0.80913887     1.02700
O1520       O  0.79325289  0.66638576  0.78615432    -0.77800
O1521       O  0.82319144  0.64476387  0.72907658    -0.77900
C1522       C  0.83441661  0.63987970  0.69975174     1.02700
Cr1523     Cr  0.84204128  0.74217281  0.69699839     1.93700
Cr1524     Cr  0.82668430  0.76898022  0.77231200     1.93200
Cr1525     Cr  0.78499532  0.68775652  0.73778356     1.39100
O1526       O  0.81702245  0.73394917  0.73601023    -1.23000
C1527       C  0.17249731  0.58775678  0.61184971     0.30100
C1528       C  0.13123920  0.52707012  0.64892552     0.30100
C1529       C  0.14960647  0.61126911  0.63923769    -0.06100
C1530       C  0.14572784  0.55824269  0.59175983    -0.06900
C1531       C  0.19331484  0.55104639  0.63401605    -0.06700
C1532       C  0.12855533  0.58023197  0.65840138    -0.06100
C1533       C  0.12432919  0.52739447  0.60979200    -0.06900
C1534       C  0.17234786  0.51975043  0.65294456    -0.06800
C1535       C  0.11851629  0.60519529  0.68714562    -0.32100
N1536       N  0.13044190  0.65051341  0.68525877     0.14400
C1537       C  0.15154315  0.65336362  0.65733952    -0.32100
H1538       H  0.16971559  0.68244508  0.65265750     0.16300
C1539       C  0.10092592  0.50689496  0.58564328    -0.31100
N1540       N  0.10822438  0.52602359  0.55410332     0.13100
C1541       C  0.13579305  0.55681266  0.55786351    -0.31100
C1542       C  0.19713172  0.99408150  0.67228118    -0.31400
N1543       N  0.23141815  0.00764180  0.66649326     0.13600
H1544       H  0.18989370  0.96953349  0.69253073     0.16200
C1545       C  0.22856841  0.54390314  0.64452570    -0.31400
H1546       H  0.25157622  0.56443613  0.63703246     0.16200
H1547       H  0.14762089  0.57720367  0.53712885     0.16200
H1548       H  0.10698687  0.59019104  0.71024554     0.16300
H1549       H  0.07945045  0.98600422  0.59059803     0.16200
O1550       O  0.25419145  0.68344624  0.66806544    -0.85200
O1551       O  0.31462092  0.64372724  0.68683912    -0.82300
C1552       C  0.34286699  0.63595355  0.70268236     0.98200
O1553       O  0.36551758  0.66994278  0.70608014    -0.82300
O1554       O  0.36308772  0.73600379  0.64743634    -0.85000
C1555       C  0.35235745  0.76859674  0.62797456     1.02700
O1556       O  0.32979715  0.79657343  0.63883805    -0.77700
O1557       O  0.27907546  0.73345402  0.63184199    -0.77900
C1558       C  0.26081038  0.69782392  0.63749064     1.02700
O1559       O  0.25784938  0.72981529  0.73616649    -0.85200
O1560       O  0.31732120  0.68527594  0.75398513    -0.82300
C1561       C  0.34001659  0.71502858  0.76574798     0.98200
O1562       O  0.35609479  0.74424106  0.74673085    -0.82300
O1563       O  0.35454524  0.81590622  0.69714399    -0.84900
C1564       C  0.32703590  0.84068388  0.70311691     1.02700
O1565       O  0.29660409  0.82315707  0.70057670    -0.77800
O1566       O  0.23887128  0.76704779  0.69045494    -0.77900
C1567       C  0.23460391  0.75402418  0.72173374     1.02700
Cr1568     Cr  0.28703505  0.68828499  0.71014662     1.93700
Cr1569     Cr  0.35740280  0.74144187  0.69779991     1.93200
Cr1570     Cr  0.28753686  0.77720543  0.66729325     1.39100
O1571       O  0.31083389  0.73577794  0.69270309    -1.23000
C1572       C  0.26598828  0.84400799  0.93121797     0.30100
C1573       C  0.30460925  0.78573738  0.89414646     0.30100
C1574       C  0.28918049  0.86942206  0.90314370    -0.06100
C1575       C  0.29316391  0.81425159  0.95139020    -0.06900
C1576       C  0.24366512  0.80724870  0.91023765    -0.06700
C1577       C  0.31082324  0.83997493  0.88638278    -0.06100
C1578       C  0.31337802  0.78367181  0.93286439    -0.06900
C1579       C  0.26367556  0.77616276  0.89344451    -0.06800
C1580       C  0.32723817  0.86635316  0.85998317    -0.32100
N1581       N  0.31372033  0.90989092  0.85727743     0.14400
C1582       C  0.28928323  0.91118877  0.88296012    -0.32100
H1583       H  0.27039537  0.93865046  0.88492833     0.16300
C1584       C  0.33806805  0.76543156  0.95621912    -0.31100
N1585       N  0.33287279  0.78457981  0.98753650     0.13100
C1586       C  0.30567962  0.81417395  0.98468967    -0.31100
C1587       C  0.24072852  0.74786803  0.87350775    -0.31400
N1588       N  0.20724785  0.76315636  0.87524010     0.13600
H1589       H  0.24855534  0.72113964  0.85602288     0.16200
C1590       C  0.20877948  0.80017682  0.89717581    -0.31400
H1591       H  0.18654595  0.82206842  0.90157253     0.16200
H1592       H  0.29603825  0.83474163  0.00548799     0.16200
H1593       H  0.34440814  0.85245847  0.84103898     0.16300
H1594       H  0.35892813  0.74177570  0.95103968     0.16200
O1595       O  0.17082537  0.93963309  0.88151431    -0.85200
O1596       O  0.16439750  0.89718067  0.81927888    -0.82300
C1597       C  0.13085636  0.89059050  0.81748541     0.98200
O1598       O  0.10867795  0.92245272  0.82874718    -0.82300
O1599       O  0.10359431  0.48556195  0.89190610    -0.85000
C1600       C  0.11476919  0.51502169  0.91390565     1.02700
O1601       O  0.13795812  0.54687087  0.90609438    -0.77700
O1602       O  0.20245183  0.00240880  0.89430661    -0.77900
C1603       C  0.19073804  0.96249741  0.90235549     1.02700
O1604       O  0.21156585  0.97450761  0.82245614    -0.85200
O1605       O  0.15023873  0.97248879  0.78266758    -0.82300
C1606       C  0.12115350  0.98930729  0.77180074     0.98200
O1607       O  0.10005256  0.50840409  0.79230954    -0.82300
O1608       O  0.09604650  0.56915060  0.84642738    -0.84900
C1609       C  0.11918726  0.60257939  0.84098102     1.02700
O1610       O  0.15177935  0.59723525  0.84477269    -0.77800
O1611       O  0.21169917  0.55063501  0.83223443    -0.77900
C1612       C  0.22365582  0.51476733  0.81792863     1.02700
Cr1613     Cr  0.16143295  0.95813722  0.83230903     1.93700
Cr1614     Cr  0.10388964  0.49774707  0.84156929     1.93200
Cr1615     Cr  0.17420473  0.54778138  0.86828748     1.39100
O1616       O  0.15061385  0.00966468  0.84277404    -1.23000
O1617       O  0.15076795  0.77275998  0.84882922    -0.85200
O1618       O  0.09708133  0.81866102  0.81428720    -0.82300
C1619       C  0.11917877  0.84616350  0.80023151     0.98200
O1620       O  0.13478809  0.83311054  0.77328744    -0.82300
O1621       O  0.17302257  0.77374601  0.72786236    -0.85000
C1622       C  0.20169861  0.75938801  0.74162500     1.02700
O1623       O  0.20154967  0.74223715  0.77185444    -0.77700
O1624       O  0.17954131  0.71063098  0.83514233    -0.77900
C1625       C  0.17789005  0.74819853  0.85236951     1.02700
O1626       O  0.11039240  0.68440314  0.84255808    -0.85200
O1627       O  0.06190195  0.73154939  0.80053890    -0.82300
C1628       C  0.04981039  0.75404275  0.77480066     0.98200
O1629       O  0.07026249  0.77829064  0.75537751    -0.82300
O1630       O  0.11125068  0.71635274  0.71690469    -0.84900
C1631       C  0.13246549  0.68255576  0.71413758     1.02700
O1632       O  0.15656582  0.67661037  0.73674016    -0.77800
O1633       O  0.12435862  0.65194596  0.79520613    -0.77900
C1634       C  0.11269059  0.64784048  0.82492188     1.02700
Cr1635     Cr  0.10688327  0.75078054  0.82334593     1.93700
Cr1636     Cr  0.12264851  0.77405799  0.74636430     1.93200
Cr1637     Cr  0.16297110  0.69823014  0.78536678     1.39100
O1638       O  0.13102022  0.74143219  0.78464820    -1.23000
O1639       O  0.29222779  0.01444151  0.68410323    -0.85200
O1640       O  0.35633791  0.55658555  0.70720355    -0.82300
C1641       C  0.34420360  0.59050481  0.72233104     0.98200
O1642       O  0.32816504  0.58343231  0.75076682    -0.82300
O1643       O  0.28311322  0.53540806  0.80177745    -0.85000
C1644       C  0.25279490  0.51776126  0.79347822     1.02700
O1645       O  0.24916132  0.99665139  0.76513230    -0.77700
O1646       O  0.26126054  0.95496958  0.70439532    -0.77900
C1647       C  0.26286218  0.99183195  0.68566293     1.02700
O1648       O  0.32766378  0.92354282  0.69279814    -0.85200
O1649       O  0.38277125  0.96935732  0.72535921    -0.82300
C1650       C  0.39956605  0.99014598  0.74938732     0.98200
O1651       O  0.38305151  0.51783148  0.77045290    -0.82300
O1652       O  0.33813105  0.96854962  0.81777227    -0.84900
C1653       C  0.31369345  0.93803062  0.82503307     1.02700
O1654       O  0.28889550  0.93049443  0.80324442    -0.77800
O1655       O  0.31311042  0.89628138  0.74290431    -0.77900
C1656       C  0.32632293  0.88970643  0.71409642     1.02700
Cr1657     Cr  0.33751300  0.99067480  0.70598065     1.93700
Cr1658     Cr  0.33188611  0.52511138  0.78237806     1.93200
Cr1659     Cr  0.28133217  0.94755328  0.75304593     1.39100
O1660       O  0.31743505  0.98752368  0.74763909    -1.23000
C1661       C  0.25932696  0.91997026  0.95940428    -0.12200
C1662       C  0.24677528  0.87377036  0.95602993     0.04800
C1663       C  0.21028764  0.86528058  0.96037857    -0.07500
C1664       C  0.18807830  0.89844432  0.94540987    -0.08200
C1665       C  0.20314118  0.94151719  0.93481218    -0.02800
C1666       C  0.23670086  0.95535763  0.94903606     0.04100
N1667       N  0.25028915  0.00255311  0.94681404     0.66600
H1668       H  0.28752981  0.92783781  0.96215147     0.15500
H1669       H  0.16139010  0.88816633  0.93747149     0.15200
N1670       N  0.19644393  0.82147561  0.97407601     0.74300
O1671       O  0.24534516  0.02975385  0.97137423    -0.39200
O1672       O  0.27344459  0.01355164  0.92498655    -0.39100
O1673       O  0.21724622  0.79004997  0.98436579    -0.39800
O1674       O  0.16397837  0.81695402  0.98093471    -0.39900
C1675       C  0.30336565  0.77607299  0.83383209    -0.12200
C1676       C  0.31807528  0.75858907  0.86466015     0.04800
C1677       C  0.34019827  0.71946556  0.86332805    -0.07500
C1678       C  0.34825581  0.70224930  0.83044755    -0.08200
C1679       C  0.33773665  0.72814272  0.80090838    -0.02800
C1680       C  0.31746170  0.76711944  0.80382320     0.04100
N1681       N  0.31561737  0.80272917  0.77800043     0.66600
H1682       H  0.28384214  0.80331671  0.83317887     0.15500
H1683       H  0.36286326  0.67044606  0.82807033     0.15200
N1684       N  0.35148295  0.69470590  0.89362657     0.74300
O1685       O  0.28568315  0.81837145  0.76932403    -0.39200
O1686       O  0.34318153  0.82832007  0.77440080    -0.39100
O1687       O  0.33105527  0.66354870  0.90632604    -0.39800
O1688       O  0.38410588  0.69468866  0.90166069    -0.39900
C1689       C  0.36208421  0.73307290  0.57119341    -0.12200
C1690       C  0.36353053  0.77296610  0.59189576     0.04800
C1691       C  0.36665918  0.81754597  0.57614588    -0.07500
C1692       C  0.36174810  0.82196420  0.54045051    -0.08200
C1693       C  0.35402867  0.78242782  0.52019894    -0.02800
C1694       C  0.35712197  0.73751426  0.53534029     0.04100
N1695       N  0.35010983  0.69641614  0.51557998     0.66600
H1696       H  0.36062705  0.69852544  0.58303366     0.15500
H1697       H  0.36077000  0.85665448  0.52878567     0.15200
N1698       N  0.37193726  0.85863152  0.59653070     0.74300
O1699       O  0.37546434  0.67136777  0.50740992    -0.39200
O1700       O  0.29394235  0.69131986  0.01643014    -0.39100
O1701       O  0.39708638  0.86095579  0.61858496    -0.39800
O1702       O  0.35011088  0.89124194  0.59422450    -0.39900
C1703       C  0.22736853  0.60665557  0.58005942    -0.12200
C1704       C  0.19248221  0.61856862  0.58637603     0.04800
C1705       C  0.18512783  0.66635712  0.58475732    -0.07500
C1706       C  0.21085564  0.69671865  0.59827451    -0.08200
C1707       C  0.24343382  0.67808094  0.60797469    -0.02800
C1708       C  0.25433365  0.63636711  0.59305841     0.04100
N1709       N  0.29067456  0.62203533  0.59365761     0.66600
H1710       H  0.23322373  0.57086581  0.57398579     0.15500
H1711       H  0.20417306  0.73201375  0.60500218     0.15200
N1712       N  0.15113159  0.68268814  0.57389380     0.74300
O1713       O  0.29999188  0.59025384  0.57386644    -0.39200
O1714       O  0.31413118  0.64294089  0.61187378    -0.39100
O1715       O  0.13295593  0.70543466  0.59428729    -0.39800
O1716       O  0.14440821  0.68614251  0.54199807    -0.39900
C1717       C  0.07881033  0.51118632  0.68553057    -0.12200
C1718       C  0.10651586  0.49245753  0.66725208     0.04800
C1719       C  0.12180046  0.95333347  0.68024922    -0.07500
C1720       C  0.12545803  0.95002504  0.71607787    -0.08200
C1721       C  0.10767782  0.48069863  0.73669232    -0.02800
C1722       C  0.07950426  0.50574976  0.72133305     0.04100
N1723       N  0.05367143  0.52795719  0.74137647     0.66600
H1724       H  0.06199658  0.53728855  0.67359368     0.15500
H1725       H  0.14197778  0.92360504  0.72802144     0.15200
N1726       N  0.13625358  0.91888500  0.65839379     0.74300
O1727       O  0.05542081  0.57160766  0.74593629    -0.39200
O1728       O  0.03036899  0.50326604  0.75654118    -0.39100
O1729       O  0.15347821  0.88528837  0.67122571    -0.39800
O1730       O  0.12803942  0.91857934  0.62667559    -0.39900
C1731       C  0.09304344  0.55674764  0.96389676    -0.12200
C1732       C  0.10035332  0.51371253  0.94920404     0.04800
C1733       C  0.10023710  0.97059971  0.96977274    -0.07500
C1734       C  0.09850520  0.97463076  0.00587651    -0.08200
C1735       C  0.09255824  0.51676127  0.52075771    -0.02800
C1736       C  0.08748841  0.55995627  0.99921766     0.04100
N1737       N  0.07986642  0.60421142  0.01383892     0.66600
H1738       H  0.09264392  0.58824465  0.94792749     0.15500
H1739       H  0.10059767  0.94781539  0.52322425     0.15200
N1740       N  0.10024712  0.92453081  0.95529857     0.74300
O1741       O  0.09426909  0.64157210  0.00242523    -0.39200
O1742       O  0.04204158  0.59479496  0.52956250    -0.39100
O1743       O  0.10900293  0.89009270  0.97415832    -0.39800
O1744       O  0.08265043  0.91625454  0.92790177    -0.39900
C1745       C  0.95019799  0.75367621  0.78673782    -0.12200
C1746       C  0.93754808  0.75024129  0.75259807     0.04800
C1747       C  0.96211006  0.74871309  0.72580324    -0.07500
C1748       C  0.99855056  0.75052188  0.73355854    -0.08200
C1749       C  0.01117702  0.75315282  0.76773041    -0.02800
C1750       C  0.98663601  0.75484059  0.79452855     0.04100
N1751       N  0.99823550  0.75993882  0.82962706     0.66600
H1752       H  0.93168764  0.75536512  0.80753885     0.15500
H1753       H  0.01708462  0.74948272  0.71273646     0.15200
N1754       N  0.95056668  0.74735565  0.69048868     0.74300
O1755       O  0.00372247  0.80047766  0.84142518    -0.39200
O1756       O  0.99543072  0.72544990  0.85022682    -0.39100
O1757       O  0.94862632  0.78511386  0.67327447    -0.39800
O1758       O  0.94967297  0.70886137  0.67498310    -0.39900
C1759       C  0.45258143  0.47894818  0.78527735    -0.12200
C1760       C  0.43821572  0.98524887  0.75269741     0.04800
C1761       C  0.45947366  0.98143289  0.72355844    -0.07500
C1762       C  0.49629984  0.98009494  0.72768316    -0.08200
C1763       C  0.51273056  0.98216138  0.76049923    -0.02800
C1764       C  0.48934670  0.47606745  0.78925712     0.04100
N1765       N  0.50377540  0.46715905  0.82305753     0.66600
H1766       H  0.43617756  0.47503537  0.80772393     0.15500
H1767       H  0.51207646  0.97814135  0.70485844     0.15200
N1768       N  0.44434064  0.98158653  0.68943311     0.74300
O1769       O  0.51041586  0.50102724  0.84288258    -0.39200
O1770       O  0.50232450  0.42600676  0.83541761    -0.39100
O1771       O  0.44380506  0.01943378  0.67219673    -0.39800
O1772       O  0.43862045  0.94324652  0.67430685    -0.39900
C1773       C  0.70585999  0.94466944  0.58139349    -0.12200
C1774       C  0.73795568  0.93096627  0.59653155     0.04800
C1775       C  0.75632372  0.89511065  0.58113055    -0.07500
C1776       C  0.73645969  0.86278778  0.56174928    -0.08200
C1777       C  0.69972567  0.86564262  0.56371256    -0.02800
C1778       C  0.68703289  0.91143911  0.56197501     0.04100
N1779       N  0.65303245  0.92148989  0.54719398     0.66600
H1780       H  0.69427561  0.97777340  0.58728852     0.15500
H1781       H  0.74853002  0.83113711  0.55335844     0.15200
N1782       N  0.79407667  0.89441190  0.58176788     0.74300
O1783       O  0.65146984  0.94039060  0.51761709    -0.39200
O1784       O  0.62629509  0.92212394  0.56600592    -0.39100
O1785       O  0.81072522  0.87520649  0.60653144    -0.39800
O1786       O  0.81002293  0.90514556  0.55450201    -0.39900
C1787       C  0.65072681  0.74832174  0.72543327    -0.12200
C1788       C  0.62392116  0.71559281  0.72910796     0.04800
C1789       C  0.60300762  0.69887662  0.70118318    -0.07500
C1790       C  0.61060504  0.71601606  0.66808742    -0.08200
C1791       C  0.63859851  0.74880261  0.66433264    -0.02800
C1792       C  0.65914445  0.76475843  0.69425486     0.04100
N1793       N  0.68888052  0.79801845  0.69417833     0.66600
H1794       H  0.66602714  0.76179593  0.74754447     0.15500
H1795       H  0.59494527  0.70440267  0.64591462     0.15200
N1796       N  0.57476082  0.66523396  0.70602172     0.74300
O1797       O  0.71873909  0.78344309  0.70397014    -0.39200
O1798       O  0.68337621  0.84039633  0.69990406    -0.39100
O1799       O  0.54309606  0.67822451  0.70384936    -0.39800
O1800       O  0.58102734  0.62215073  0.70485366    -0.39900
C1801       C  0.58589103  0.78748994  0.95032074    -0.12200
C1802       C  0.59317258  0.74357815  0.93735642     0.04800
C1803       C  0.59246374  0.70396071  0.96011219    -0.07500
C1804       C  0.59372836  0.71169259  0.99593100    -0.08200
C1805       C  0.59301319  0.76106427  0.50800130    -0.02800
C1806       C  0.58388559  0.79404218  0.98564776     0.04100
N1807       N  0.57763641  0.83987611  0.99793446     0.66600
H1808       H  0.58399343  0.81757204  0.93302034     0.15500
H1809       H  0.59909178  0.68715779  0.51463222     0.15200
N1810       N  0.59169224  0.65661927  0.94786534     0.74300
O1811       O  0.54721583  0.84882044  0.00835414    -0.39200
O1812       O  0.60020488  0.87677761  0.48913577    -0.39100
O1813       O  0.60161196  0.62374245  0.96768153    -0.39800
O1814       O  0.57332832  0.64619308  0.92132739    -0.39900
C1815       C  0.75585393  0.64175507  0.93626741    -0.12200
C1816       C  0.74373499  0.59733733  0.92527679     0.04800
C1817       C  0.70865070  0.58317407  0.93304205    -0.07500
C1818       C  0.68407473  0.61821440  0.93631409    -0.08200
C1819       C  0.69583305  0.66485700  0.93177521    -0.02800
C1820       C  0.73110986  0.67563310  0.94203884     0.04100
N1821       N  0.74287596  0.72240433  0.94978903     0.66600
H1822       H  0.78386022  0.65134936  0.93691899     0.15500
H1823       H  0.65614378  0.60892424  0.93484110     0.15200
N1824       N  0.69864281  0.53518059  0.93992513     0.74300
O1825       O  0.74589013  0.73408151  0.98094091    -0.39200
O1826       O  0.75865849  0.74693041  0.92723405    -0.39100
O1827       O  0.71542463  0.51298786  0.96318697    -0.39800
O1828       O  0.66862582  0.51930898  0.92982108    -0.39900
C1829       C  0.83497293  0.93381857  0.80965958    -0.12200
C1830       C  0.84774194  0.46789252  0.78790026     0.04800
C1831       C  0.87218985  0.50140933  0.80186298    -0.07500
C1832       C  0.87086101  0.51039559  0.83704419    -0.08200
C1833       C  0.84406155  0.48798121  0.85607134    -0.02800
C1834       C  0.83549391  0.94237879  0.84490541     0.04100
N1835       N  0.82295048  0.90734385  0.86878944     0.66600
H1836       H  0.82080145  0.90317340  0.79970415     0.15500
H1837       H  0.88569071  0.54016309  0.84750090     0.15200
N1838       N  0.89577318  0.52863901  0.78058440     0.74300
O1839       O  0.79064867  0.89456178  0.86837294    -0.39200
O1840       O  0.84527287  0.88125153  0.88357211    -0.39100
O1841       O  0.89031653  0.57136799  0.77435216    -0.39800
O1842       O  0.92020981  0.50880823  0.76535047    -0.39900
C1843       C  0.86425257  0.98104321  0.51818974    -0.12200
C1844       C  0.85046408  0.52659587  0.50172264     0.04800
C1845       C  0.84772475  0.56718042  0.52181376    -0.07500
C1846       C  0.85051508  0.56390189  0.55762461    -0.08200
C1847       C  0.85786544  0.52143235  0.57463775    -0.02800
C1848       C  0.86916948  0.97861475  0.55462762     0.04100
N1849       N  0.88387300  0.93733321  0.57052298     0.66600
H1850       H  0.86697350  0.95003324  0.50295650     0.15500
H1851       H  0.84514803  0.59473264  0.57229162     0.15200
N1852       N  0.84038763  0.61180557  0.50629481     0.74300
O1853       O  0.88255269  0.89897117  0.55478508    -0.39200
O1854       O  0.90484653  0.94137830  0.59622416    -0.39100
O1855       O  0.81262385  0.63250916  0.51396946    -0.39800
O1856       O  0.86507718  0.63478595  0.49184035    -0.39900
loop_ 
_geom_bond_atom_site_label_1 
_geom_bond_atom_site_label_2 
_geom_bond_distance 
_geom_bond_site_symmetry_2 
_ccdc_geom_bond_type 
C1            C3   1.564       .  S
C1            C5   1.546       .  S
C1            C4   1.512       .  S
C1          C424   1.499       .  S
C2            C6   1.572       .  S
C2            C8   1.581       .  S
C2            C7   1.550       .  S
C2          C441   1.524   1_545  S
C3           C11   1.403       .  A
C3            C6   1.387       .  A
C4           C15   1.364       .  A
C4            C7   1.375       .  A
C5           C19   1.398       .  A
C5            C8   1.388       .  A
C6            C9   1.402       .  A
C7           C13   1.404       .  A
C8          C944   1.406   1_545  A
C9           N10   1.362       .  A
C9           H22   1.080       .  S
N10          C11   1.368       .  A
N10         C127   1.463       .  S
C11          H12   1.082       .  S
C13          N14   1.371       .  A
C13         H951   1.082   1_545  S
N14          C15   1.350       .  A
N14         C916   1.450       .  S
C15          H21   1.082       .  S
C16         C936   1.404       .  A
C16          N17   1.364       .  A
C16          H18   1.078       .  S
N17         C947   1.361       .  A
N17          C99   1.462       .  S
C19         N945   1.359   1_545  A
C19          H20   1.081       .  S
H23         C941   1.082       .  S
O24         Cr42   1.977       .  S
O24          C32   1.257       .  A
O25         Cr42   1.788       .  S
O25          C26   1.274       .  A
C26          O27   1.341       .  A
C26          C93   1.458       .  S
O27         Cr43   2.222       .  S
O28         Cr43   1.988       .  S
O28          C29   1.263       .  A
C29          O30   1.275       .  A
C29         C410   1.478       .  S
O30         Cr44   2.012       .  S
O31         Cr44   1.951       .  S
O31          C32   1.250       .  A
C32         C427   1.464       .  S
O33         Cr42   2.016       .  S
O33          C41   1.280       .  A
O34         Cr42   1.962       .  S
O34          C35   1.262       .  A
C35          O36   1.247       .  A
C35         C396   1.398       .  S
O36         Cr43   1.924       .  S
O37         Cr43   2.114       .  S
O37          C38   1.301       .  A
C38          O39   1.242       .  A
C38         C108   1.479       .  S
O39         Cr44   1.843       .  S
O40         Cr44   2.010       .  S
O40          C41   1.269       .  A
C41         C118   1.494       .  S
Cr42         O45   1.599       .  S
Cr43         O45   1.740       .  S
Cr44         O45   1.739       .  S
C46          C48   1.572       .  S
C46          C50   1.582       .  S
C46          C49   1.542       .  S
C46         C385   1.516       .  S
C47          C51   1.541       .  S
C47          C53   1.540       .  S
C47          C52   1.536       .  S
C47         C399   1.481       .  S
C48          C56   1.418       .  A
C48          C51   1.360       .  A
C49          C60   1.354       .  A
C49          C52   1.402       .  A
C50          C64   1.422       .  A
C50          C53   1.365       .  A
C51          C54   1.387       .  A
C52          C58   1.390       .  A
C53          C61   1.389       .  A
C54          N55   1.348       .  A
C54          H67   1.083       .  S
N55          C56   1.370       .  A
N55         C105   1.455       .  S
C56          H57   1.075       .  S
C58          N59   1.368       .  A
C58          H68   1.082       .  S
N59          C60   1.351       .  A
N59         C413   1.435       .  S
C60          H66   1.082       .  S
C61          N62   1.347       .  A
C61          H63   1.088       .  S
N62          C64   1.382       .  A
N62         C121   1.470       .  S
C64          H65   1.059       .  S
O69         Cr87   2.057       .  S
O69          C77   1.287       .  A
O70         Cr87   1.945       .  S
O70          C71   1.254       .  A
C71          O72   1.287       .  A
C71         C115   1.510       .  S
O72       Cr1016   2.095       .  S
O73         Cr88   2.009       .  S
O73          C74   1.266   1_565  A
C74          O75   1.269       .  A
C74         C455   1.497       .  S
O75         Cr89   2.012       .  S
O76       Cr1017   1.877       .  S
O76          C77   1.236       .  A
C77         C382   1.425       .  S
O78         Cr87   1.972       .  S
O78        C1014   1.242       .  A
O79         Cr87   2.013       .  S
O79          C80   1.270       .  A
C80        O1009   1.256       .  A
C80        C1366   1.467       .  S
O81         Cr88   1.933   1_545  S
O81        C1008   1.252   1_545  A
O82         Cr88   2.094   1_545  S
O82          C83   1.291       .  A
C83          O84   1.248       .  A
C83         C130   1.445       .  S
O84         Cr89   1.883       .  S
O85         Cr89   2.072       .  S
O85          C86   1.267       .  A
C86        O1006   1.242       .  A
C86          C96   1.476       .  S
Cr87         O90   1.741       .  S
Cr88       O1000   2.102       .  S
Cr88       O1018   1.750       .  S
Cr89       O1004   1.880   1_545  S
Cr89       O1018   1.776   1_545  S
O90       Cr1016   1.756       .  S
O90       Cr1017   1.774       .  S
O91        Cr109   2.052       .  S
O91          C99   1.283       .  A
O92       Cr1037   1.927   1_545  S
O92          C93   1.247       .  A
C93          O94   1.278       .  A
O94        Cr110   2.055       .  S
O95        Cr110   2.040       .  S
O95          C96   1.271       .  A
C96        O1025   1.252   1_545  A
O97        Cr111   1.984       .  S
O97        C1024   1.254       .  A
O98        Cr111   1.997       .  S
O98          C99   1.266       .  A
O100       Cr109   2.016       .  S
O100        C108   1.246       .  A
O101       Cr109   1.987       .  S
O101        C102   1.264       .  A
C102        O103   1.268       .  A
C102        C371   1.485       .  S
O103      Cr1038   1.984       .  S
O104      Cr1038   2.080       .  S
O104        C105   1.281       .  A
C105        O106   1.265       .  A
O106       Cr111   1.972       .  S
O107       Cr111   1.968       .  S
O107        C108   1.266       .  A
Cr109      O1020   1.924       .  S
Cr109       O112   1.798       .  S
Cr110      O1031   1.986   1_545  S
Cr110      O1032   2.082   1_545  S
Cr110      O1040   1.779   1_545  S
Cr111       O112   1.755       .  S
O112      Cr1038   1.779       .  S
O113       Cr131   1.997       .  S
O113        C121   1.261       .  A
O114       Cr131   2.007       .  S
O114        C115   1.256       .  A
C115        O116   1.287       .  A
O116       Cr132   2.064       .  S
O117       Cr132   2.033       .  S
O117        C118   1.270       .  A
C118        O119   1.265       .  A
O119       Cr133   1.967       .  S
O120       Cr133   2.076       .  S
O120        C121   1.288       .  A
O122       Cr131   2.026       .  S
O122        C130   1.261       .  A
O123       Cr131   1.968       .  S
O123        C124   1.262       .  A
C124        O125   1.272       .  A
C124        C354   1.476       .  S
O125       Cr132   2.017       .  S
O126       Cr132   2.069       .  S
O126        C127   1.285       .  A
C127        O128   1.258       .  A
O128       Cr133   1.993       .  S
O129       Cr133   1.960       .  S
O129        C130   1.238       .  A
Cr131       O134   1.815       .  S
Cr132       O134   1.765       .  S
Cr133       O134   1.763       .  S
C135        C137   1.563       .  S
C135        C139   1.563       .  S
C135        C138   1.507       .  S
C135        C312   1.516       .  S
C136        C140   1.573       .  S
C136        C142   1.574       .  S
C136        C141   1.535       .  S
C136        C326   1.520   1_545  S
C137        C145   1.403       .  A
C137        C140   1.392       .  A
C138        C149   1.360       .  A
C138        C141   1.373       .  A
C139        C153   1.402       .  A
C139        C142   1.389       .  A
C140        C143   1.401       .  A
C141        C147   1.395       .  A
C142       C1078   1.405   1_545  A
C143        N144   1.359       .  A
C143        H156   1.075       .  S
N144        C145   1.361       .  A
N144        C239   1.457       .  S
C145        H146   1.078       .  S
C147        N148   1.364       .  A
C147       H1085   1.082   1_545  S
N148        C149   1.348       .  A
N148        C343   1.435       .  S
C149        H155   1.083       .  S
C150       C1070   1.409       .  A
C150        N151   1.367       .  A
C150        H152   1.080       .  S
N151       C1081   1.359       .  A
N151        C255   1.469       .  S
C153       N1079   1.359       .  A
C153        H154   1.073       .  S
H157       C1075   1.082       .  S
O158       Cr176   2.032       .  S
O158        C166   1.279       .  A
O159       Cr176   1.921       .  S
O159        C160   1.241       .  A
C160        O161   1.281       .  A
C160        C249   1.496       .  S
O161       Cr177   2.094       .  S
O162       Cr177   1.985       .  S
O162        C163   1.258       .  A
C163        O164   1.268       .  A
C163        C298   1.477       .  S
O164       Cr178   2.022       .  S
O165       Cr178   1.886       .  S
O165        C166   1.231       .  A
C166        C315   1.421       .  S
O167       Cr176   1.955       .  S
O167        C175   1.248       .  A
O168       Cr176   2.030       .  S
O168        C169   1.270       .  A
C169        O170   1.258       .  A
C169        C287   1.435       .  S
O170       Cr177   1.906       .  S
O171       Cr177   2.139       .  S
O171        C172   1.304       .  A
C172        O173   1.241       .  A
C172        C264   1.476       .  S
O173       Cr178   1.873       .  S
O174       Cr178   2.076       .  S
O174        C175   1.276       .  A
C175        C230   1.491       .  S
Cr176       O179   1.742       .  S
Cr177       O179   1.763       .  S
Cr178       O179   1.771       .  S
C180        C182   1.575       .  S
C180        C184   1.549       .  S
C180        C183   1.540       .  S
C180        C270   1.511       .  S
C181        C185   1.586       .  S
C181        C187   1.562       .  S
C181        C186   1.528       .  S
C181        C284   1.500       .  S
C182        C190   1.418       .  A
C182        C185   1.376       .  A
C183        C194   1.363       .  A
C183        C186   1.396       .  A
C184        C198   1.405       .  A
C184        C187   1.368       .  A
C185        C188   1.409       .  A
C186        C192   1.390       .  A
C187        C195   1.395       .  A
C188        N189   1.358       .  A
C188        H201   1.082       .  S
N189        C190   1.377       .  A
N189        C261   1.478       .  S
C190        H191   1.081       .  S
C192        N193   1.363       .  A
C192        H202   1.079       .  S
N193        C194   1.350       .  A
N193        C765   1.435       .  S
C194        H200   1.083       .  S
C195        N196   1.354       .  A
C195        H197   1.083       .  S
N196        C198   1.366       .  A
N196        C233   1.458       .  S
C198        H199   1.079       .  S
O203       Cr221   1.997       .  S
O203        C211   1.266       .  A
O204       Cr221   1.827       .  S
O204        C205   1.273       .  A
C205        O206   1.341       .  A
C205        C227   1.495       .  S
O206      Cr1150   2.236       .  S
O207       Cr222   1.976       .  S
O207        C208   1.264   1_565  A
C208        O209   1.282       .  A
C208        C340   1.488       .  S
O209       Cr223   2.039       .  S
O210      Cr1151   1.935       .  S
O210        C211   1.248       .  A
C211        C273   1.457       .  S
O212       Cr221   1.980       .  S
O212       C1148   1.273       .  A
O213       Cr221   2.002       .  S
O213        C214   1.271       .  A
C214       O1143   1.253       .  A
C214       C1257   1.456       .  S
O215       Cr222   1.936   1_545  S
O215       C1142   1.255   1_545  A
O216       Cr222   2.079   1_545  S
O216        C217   1.292       .  A
C217        O218   1.248       .  A
C217        C242   1.449       .  S
O218       Cr223   1.879       .  S
O219       Cr223   2.019       .  S
O219        C220   1.275       .  A
C220       O1140   1.273   1_545  A
C220        C252   1.471       .  S
Cr221       O224   1.600       .  S
Cr222      O1134   2.228       .  S
Cr222      O1152   1.727   1_565  S
Cr223      O1138   1.938       .  S
Cr223      O1152   1.730       .  S
O224      Cr1150   1.728       .  S
O224      Cr1151   1.732       .  S
O225       Cr243   1.996       .  S
O225        C233   1.262       .  A
O226       Cr243   2.009       .  S
O226        C227   1.257       .  A
C227        O228   1.280       .  A
O228       Cr244   2.033       .  S
O229       Cr244   2.050       .  S
O229        C230   1.271       .  A
C230        O231   1.263       .  A
O231       Cr245   1.968       .  S
O232       Cr245   2.045       .  S
O232        C233   1.277       .  A
O234       Cr243   2.029       .  S
O234        C242   1.264       .  A
O235       Cr243   1.963       .  S
O235        C236   1.262       .  A
C236        O237   1.275       .  A
C236        C357   1.478       .  S
O237       Cr244   2.024       .  S
O238       Cr244   2.048       .  S
O238        C239   1.279       .  A
C239        O240   1.260       .  A
O240       Cr245   2.002       .  S
O241       Cr245   1.979       .  S
O241        C242   1.248       .  A
Cr243       O246   1.804       .  S
Cr244       O246   1.766       .  S
Cr245       O246   1.750       .  S
O247       Cr265   2.027       .  S
O247        C255   1.270       .  A
O248      Cr1193   1.990   1_545  S
O248        C249   1.249       .  A
C249        O250   1.282       .  A
O250       Cr266   2.055       .  S
O251       Cr266   2.036       .  S
O251        C252   1.271       .  A
C252       O1181   1.259   1_545  A
O253       Cr267   1.951       .  S
O253       C1180   1.257       .  A
O254       Cr267   2.033       .  S
O254        C255   1.272       .  A
O256       Cr265   2.014       .  S
O256        C264   1.261       .  A
O257       Cr265   1.965       .  S
O257        C258   1.264       .  A
C258       O1187   1.274       .  A
C258        C368   1.475       .  S
O259       Cr266   2.015       .  S
O259       C1186   1.275   1_545  A
O260      Cr1194   2.072       .  S
O260        C261   1.282       .  A
C261        O262   1.262       .  A
O262       Cr267   2.020       .  S
O263       Cr267   1.976       .  S
O263        C264   1.256       .  A
Cr265      O1176   1.986       .  S
Cr265       O268   1.804       .  S
Cr266      O1188   2.073   1_545  S
Cr266      O1196   1.777   1_545  S
Cr267       O268   1.765       .  S
O268      Cr1194   1.780       .  S
C269        C270   1.396       .  A
C269        C274   1.390       .  A
C269        H276   1.084       .  S
C270        C271   1.403       .  A
C271        C272   1.393       .  A
C271        N278   1.440       .  S
C272        C273   1.399       .  A
C272        H277   1.079       .  S
C273        C274   1.416       .  A
C274        N275   1.430       .  S
N275        O279   1.262       .  A
N275        O280   1.262       .  A
N278        O282   1.263       .  A
N278        O281   1.263       .  A
C283        C284   1.389       .  A
C283        C288   1.323       .  A
C283        H290   1.087       .  S
C284        C285   1.419       .  A
C285        C286   1.424       .  A
C285        N292   1.425       .  S
C286        C287   1.412       .  A
C286        H291   1.083       .  S
C287        C288   1.378       .  A
C288        N289   1.414       .  S
N289        O293   1.262       .  A
N289        O294   1.263       .  A
N292        O296   1.262       .  A
N292        O295   1.262       .  A
C297        C298   1.404       .  A
C297        C302   1.403       .  A
C297        H304   1.081       .  S
C298        C299   1.406       .  A
C299        C300   1.399       .  A
C299        N306   1.432       .  S
C300        C301   1.406       .  A
C300        H305   1.083       .  S
C301        C302   1.408       .  A
C301        N657   1.436   1_554  S
C302        N303   1.428       .  S
N303        O307   1.262       .  A
N303        O772   1.262       .  A
N306        O310   1.262       .  A
N306        O309   1.262       .  A
O308        N767   1.262       .  A
C311        C312   1.398       .  A
C311        C316   1.396       .  A
C311        H318   1.083       .  S
C312        C313   1.400       .  A
C313        C314   1.382       .  A
C313        N320   1.428       .  S
C314        C315   1.395       .  A
C314        H319   1.084       .  S
C315        C316   1.411       .  A
C316        N317   1.442       .  S
N317        O321   1.263       .  A
N317        O322   1.261       .  A
N320        O324   1.261       .  A
N320        O323   1.262       .  A
C325        C326   1.403   1_545  A
C325        C330   1.396       .  A
C325        H332   1.083       .  S
C326       C1255   1.407       .  A
C327        C328   1.395       .  A
C327       C1254   1.406       .  A
C327        N334   1.440       .  S
C328       C1257   1.401       .  A
C328        H333   1.083       .  S
C329        C330   1.412   1_565  A
C329       C1256   1.401       .  A
C329       C1142   1.461       .  S
C330        N331   1.432       .  S
N331        O335   1.262       .  A
N331        O336   1.262       .  A
N334        O338   1.262       .  A
N334        O337   1.263       .  A
C339        C340   1.404       .  A
C339        C344   1.399       .  A
C339        H346   1.084       .  S
C340       C1269   1.427   1_545  A
C341        C342   1.412       .  A
C341       C1268   1.428       .  A
C341        N348   1.440       .  S
C342       C1735   1.395       .  A
C342        H811   1.083       .  S
C343       C1734   1.396   1_545  A
C343        C808   1.404   1_554  A
C344        C807   1.404       .  A
C344        N345   1.429       .  S
N345        O349   1.260       .  A
N345        O814   1.262       .  A
H347        C806   1.083       .  S
N348        O352   1.261       .  A
N348        O351   1.263       .  A
O350        N809   1.262       .  A
C353        C354   1.401       .  A
C353        C358   1.399       .  A
C353        H360   1.084       .  S
C354        C355   1.412       .  A
C355        C356   1.400       .  A
C355        N362   1.429       .  S
C356        C357   1.402   1_655  A
C356        H361   1.084   1_655  S
C357        C358   1.414   1_455  A
C358        N359   1.429       .  S
N359        O363   1.262   1_655  A
N359        O364   1.262       .  A
N362        O366   1.262       .  A
N362        O365   1.262       .  A
C367        C372   1.397       .  A
C367       C1296   1.401       .  A
C367        H374   1.084   1_565  S
C368        C369   1.412       .  A
C368       C1295   1.400       .  A
C369        C370   1.398       .  A
C369        N376   1.429       .  S
C370        C371   1.405       .  A
C370        H375   1.084       .  S
C371       C1300   1.418       .  A
C372       C1299   1.417       .  A
C372        N373   1.429   1_565  S
N373        O377   1.262       .  A
N373        O378   1.262   1_545  A
N376        O380   1.262       .  A
N376        O379   1.262       .  A
C381        C382   1.395       .  A
C381        C386   1.390       .  A
C381        H388   1.084       .  S
C382        C383   1.403       .  A
C383        C384   1.389       .  A
C383        N390   1.422       .  S
C384        C385   1.393       .  A
C384        H389   1.083       .  S
C385        C386   1.408       .  A
C386        N387   1.428       .  S
N387        O391   1.261       .  A
N387        O392   1.262       .  A
N390        O394   1.261       .  A
N390        O393   1.261       .  A
C395        C396   1.366       .  A
C395        C400   1.334       .  A
C395        H402   1.091       .  S
C396        C397   1.406       .  A
C397        C398   1.401       .  A
C397        N404   1.427       .  S
C398        C399   1.399       .  A
C398        H403   1.083       .  S
C399        C400   1.451       .  A
C400        N401   1.448       .  S
N401        O405   1.260       .  A
N401        O406   1.259       .  A
N404        O408   1.262       .  A
N404        O407   1.262       .  A
C409        C410   1.398       .  A
C409        C414   1.394       .  A
C409        H416   1.084       .  S
C410        C411   1.416       .  A
C411        C412   1.406       .  A
C411        N418   1.430       .  S
C412        C877   1.398       .  A
C412        H881   1.083       .  S
C413        C876   1.399   1_554  A
C413        C878   1.410   1_554  A
C414        C877   1.413       .  A
C414        N415   1.430       .  S
N415        O419   1.262       .  A
N415        O884   1.262       .  A
H417        C876   1.082   1_554  S
N418        O422   1.262       .  A
N418        O421   1.262       .  A
O420        N879   1.261       .  A
C423        C424   1.402       .  A
C423        C428   1.388       .  A
C423        H430   1.084       .  S
C424        C425   1.410       .  A
C425        C426   1.393       .  A
C425        N432   1.440       .  S
C426        C427   1.403       .  A
C426        H431   1.081       .  S
C427        C428   1.407       .  A
C428        N429   1.429       .  S
N429        O433   1.262       .  A
N429        O434   1.262       .  A
N432        O436   1.263       .  A
N432        O435   1.262       .  A
C437        C442   1.396       .  A
C437       C1366   1.401       .  A
C437        H444   1.084       .  S
C438        C439   1.414   1_565  A
C438       C1365   1.400       .  A
C438       C1008   1.465       .  S
C439        C440   1.397       .  A
C439        N446   1.434       .  S
C440        C441   1.401   1_545  A
C440        H445   1.083       .  S
C441       C1370   1.410       .  A
C442       C1369   1.410       .  A
C442        N443   1.431       .  S
N443        O447   1.261       .  A
N443        O448   1.262       .  A
N446        O450   1.262       .  A
N446        O449   1.262       .  A
C451        C456   1.418       .  A
C451       C1380   1.409       .  A
C451        H458   1.083       .  S
C452        C453   1.411       .  A
C452       C1379   1.406   1_545  A
C452        N478   1.446   1_554  S
C453        C454   1.393       .  A
C453        N460   1.431       .  S
C454        C455   1.404       .  A
C454        H459   1.084       .  S
C455       C1384   1.423   1_545  A
C456       C1383   1.416       .  A
C456        N457   1.431       .  S
N457        O461   1.260       .  A
N457        O462   1.262       .  A
N460        O464   1.262   1_554  A
N460        O463   1.262       .  A
C465        C467   1.562       .  S
C465        C469   1.547       .  S
C465        C468   1.515       .  S
C465        C888   1.502       .  S
C466        C470   1.571       .  S
C466        C472   1.578       .  S
C466        C471   1.542       .  S
C466        C905   1.524   1_545  S
C467        C475   1.401       .  A
C467        C470   1.385       .  A
C468        C479   1.365       .  A
C468        C471   1.376       .  A
C469        C483   1.396       .  A
C469        C472   1.391       .  A
C470        C473   1.400       .  A
C471        C477   1.397       .  A
C472       C1408   1.403   1_545  A
C473        N474   1.360       .  A
C473        H486   1.089       .  S
N474        C475   1.368       .  A
N474        C591   1.460       .  S
C475        H476   1.081       .  S
C477        N478   1.367       .  A
C477       H1415   1.082   1_545  S
N478        C479   1.352       .  A
C479        H485   1.082       .  S
C480       C1400   1.403       .  A
C480        N481   1.363       .  A
C480        H482   1.077       .  S
N481       C1411   1.361       .  A
N481        C563   1.461       .  S
C483       N1409   1.360   1_545  A
C483        H484   1.080       .  S
H487       C1405   1.082       .  S
O488       Cr506   1.979       .  S
O488        C496   1.261       .  A
O489       Cr506   1.793       .  S
O489        C490   1.276       .  A
C490        O491   1.340       .  A
C490        C557   1.458       .  S
O491       Cr507   2.218       .  S
O492       Cr507   1.972       .  S
O492        C493   1.260       .  A
C493        O494   1.277       .  A
C493        C874   1.478       .  S
O494       Cr508   2.018       .  S
O495       Cr508   1.947       .  S
O495        C496   1.248       .  A
C496        C891   1.464       .  S
O497       Cr506   2.013       .  S
O497        C505   1.280       .  A
O498       Cr506   1.970       .  S
O498        C499   1.262       .  A
C499        O500   1.249       .  A
C499        C860   1.397       .  S
O500       Cr507   1.922       .  S
O501       Cr507   2.116       .  S
O501        C502   1.300       .  A
C502        O503   1.239       .  A
C502        C572   1.477       .  S
O503       Cr508   1.835       .  S
O504       Cr508   2.001       .  S
O504        C505   1.268       .  A
C505        C582   1.488       .  S
Cr506       O509   1.598       .  S
Cr507       O509   1.738       .  S
Cr508       O509   1.736       .  S
C510        C512   1.570       .  S
C510        C514   1.580       .  S
C510        C513   1.543       .  S
C510        C849   1.517       .  S
C511        C515   1.541       .  S
C511        C517   1.543       .  S
C511        C516   1.537       .  S
C511        C863   1.482       .  S
C512        C520   1.416       .  A
C512        C515   1.362       .  A
C513        C524   1.355       .  A
C513        C516   1.403       .  A
C514        C528   1.418       .  A
C514        C517   1.364       .  A
C515        C518   1.386       .  A
C516        C522   1.390       .  A
C517        C525   1.393       .  A
C518        N519   1.349       .  A
C518        H531   1.083       .  S
N519        C520   1.371       .  A
N519        C569   1.455       .  S
C520        H521   1.076       .  S
C522        N523   1.369       .  A
C522        H532   1.082       .  S
N523        C524   1.352       .  A
N523        C877   1.436       .  S
C524        H530   1.082       .  S
C525        N526   1.351       .  A
C525        H527   1.082       .  S
N526        C528   1.375       .  A
N526        C585   1.470       .  S
C528        H529   1.080       .  S
O533       Cr551   2.057       .  S
O533        C541   1.288       .  A
O534       Cr551   1.948       .  S
O534        C535   1.255       .  A
C535        O536   1.288       .  A
C535        C579   1.513       .  S
O536      Cr1480   2.097       .  S
O537       Cr552   2.013       .  S
O537        C538   1.267   1_565  A
C538        O539   1.270       .  A
C538        C919   1.504       .  S
O539       Cr553   2.019       .  S
O540      Cr1481   1.877       .  S
O540        C541   1.239       .  A
C541        C846   1.432       .  S
O542       Cr551   1.976       .  S
O542       C1478   1.242       .  A
O543       Cr551   2.011       .  S
O543        C544   1.269       .  A
C544       O1473   1.254       .  A
C544       C1830   1.467       .  S
O545       Cr552   1.938   1_545  S
O545       C1472   1.254   1_545  A
O546       Cr552   2.095   1_545  S
O546        C547   1.291       .  A
C547        O548   1.247       .  A
C547        C594   1.443       .  S
O548       Cr553   1.879       .  S
O549       Cr553   2.076       .  S
O549        C550   1.267       .  A
C550       O1470   1.241       .  A
C550        C560   1.478       .  S
Cr551       O554   1.743       .  S
Cr552      O1464   2.104       .  S
Cr552      O1482   1.750       .  S
Cr553      O1468   1.869   1_545  S
Cr553      O1482   1.779   1_545  S
O554      Cr1480   1.758       .  S
O554      Cr1481   1.779       .  S
O555       Cr573   2.053       .  S
O555        C563   1.283       .  A
O556      Cr1501   1.924   1_545  S
O556        C557   1.245       .  A
C557        O558   1.278       .  A
O558       Cr574   2.059       .  S
O559       Cr574   2.036       .  S
O559        C560   1.271       .  A
C560       O1489   1.255   1_545  A
O561       Cr575   1.978       .  S
O561       C1488   1.252       .  A
O562       Cr575   1.997       .  S
O562        C563   1.267       .  A
O564       Cr573   2.016       .  S
O564        C572   1.244       .  A
O565       Cr573   1.978       .  S
O565        C566   1.262       .  A
C566        O567   1.267       .  A
C566        C835   1.482       .  S
O567      Cr1502   1.983       .  S
O568      Cr1502   2.081       .  S
O568        C569   1.281       .  A
C569        O570   1.265       .  A
O570       Cr575   1.972       .  S
O571       Cr575   1.959       .  S
O571        C572   1.265       .  A
Cr573      O1484   1.925       .  S
Cr573       O576   1.797       .  S
Cr574      O1495   1.984   1_545  S
Cr574      O1496   2.081   1_545  S
Cr574      O1504   1.777   1_545  S
Cr575       O576   1.752       .  S
O576      Cr1502   1.777       .  S
O577       Cr595   1.996       .  S
O577        C585   1.262       .  A
O578       Cr595   2.013       .  S
O578        C579   1.258       .  A
C579        O580   1.286       .  A
O580       Cr596   2.061       .  S
O581       Cr596   2.028       .  S
O581        C582   1.270       .  A
C582        O583   1.266       .  A
O583       Cr597   1.963       .  S
O584       Cr597   2.075       .  S
O584        C585   1.287       .  A
O586       Cr595   2.029       .  S
O586        C594   1.262       .  A
O587       Cr595   1.968       .  S
O587        C588   1.261       .  A
C588        O589   1.272       .  A
C588        C818   1.478       .  S
O589       Cr596   2.018       .  S
O590       Cr596   2.069       .  S
O590        C591   1.284       .  A
C591        O592   1.256       .  A
O592       Cr597   1.986       .  S
O593       Cr597   1.959       .  S
O593        C594   1.236       .  A
Cr595       O598   1.812       .  S
Cr596       O598   1.765       .  S
Cr597       O598   1.762       .  S
C599        C601   1.564       .  S
C599        C603   1.561       .  S
C599        C602   1.507       .  S
C599        C776   1.516       .  S
C600        C604   1.572       .  S
C600        C606   1.574       .  S
C600        C605   1.532       .  S
C600        C790   1.521   1_545  S
C601        C609   1.404       .  A
C601        C604   1.391       .  A
C602        C613   1.359       .  A
C602        C605   1.374       .  A
C603        C617   1.401       .  A
C603        C606   1.390       .  A
C604        C607   1.394       .  A
C605        C611   1.393       .  A
C606       C1542   1.405   1_545  A
C607        N608   1.353       .  A
C607        H620   1.112       .  S
N608        C609   1.366       .  A
N608        C703   1.458       .  S
C609        H610   1.073       .  S
C611        N612   1.363       .  A
C611       H1549   1.082   1_545  S
N612        C613   1.348       .  A
N612        C807   1.433       .  S
C613        H619   1.083       .  S
C614       C1534   1.406       .  A
C614        N615   1.364       .  A
C614        H616   1.079       .  S
N615       C1545   1.360       .  A
N615        C719   1.465       .  S
C617       N1543   1.358       .  A
C617        H618   1.074       .  S
H621       C1539   1.082       .  S
O622       Cr640   2.031       .  S
O622        C630   1.279       .  A
O623       Cr640   1.923       .  S
O623        C624   1.242       .  A
C624        O625   1.282       .  A
C624        C713   1.499       .  S
O625       Cr641   2.095       .  S
O626       Cr641   1.986       .  S
O626        C627   1.259       .  A
C627        O628   1.268       .  A
C627        C762   1.477       .  S
O628       Cr642   2.021       .  S
O629       Cr642   1.884       .  S
O629        C630   1.231       .  A
C630        C779   1.420       .  S
O631       Cr640   1.955       .  S
O631        C639   1.248       .  A
O632       Cr640   2.027       .  S
O632        C633   1.270       .  A
C633        O634   1.258       .  A
C633        C751   1.432       .  S
O634       Cr641   1.906       .  S
O635       Cr641   2.137       .  S
O635        C636   1.304       .  A
C636        O637   1.240       .  A
C636        C728   1.473       .  S
O637       Cr642   1.872       .  S
O638       Cr642   2.075       .  S
O638        C639   1.276       .  A
C639        C694   1.491       .  S
Cr640       O643   1.742       .  S
Cr641       O643   1.763       .  S
Cr642       O643   1.773       .  S
C644        C646   1.574       .  S
C644        C648   1.549       .  S
C644        C647   1.541       .  S
C644        C734   1.510       .  S
C645        C649   1.583       .  S
C645        C651   1.565       .  S
C645        C650   1.530       .  S
C645        C748   1.502       .  S
C646        C654   1.418       .  A
C646        C649   1.376       .  A
C647        C658   1.365       .  A
C647        C650   1.398       .  A
C648        C662   1.406       .  A
C648        C651   1.366       .  A
C649        C652   1.407       .  A
C650        C656   1.390       .  A
C651        C659   1.396       .  A
C652        N653   1.357       .  A
C652        H665   1.082       .  S
N653        C654   1.378       .  A
N653        C725   1.476       .  S
C654        H655   1.081       .  S
C656        N657   1.363       .  A
C656        H666   1.078       .  S
N657        C658   1.350       .  A
C658        H664   1.083   1_556  S
C659        N660   1.355       .  A
C659        H661   1.083       .  S
N660        C662   1.367       .  A
N660        C697   1.460       .  S
C662        H663   1.080       .  S
O667       Cr685   2.000       .  S
O667        C675   1.266       .  A
O668       Cr685   1.830       .  S
O668        C669   1.274       .  A
C669        O670   1.340       .  A
C669        C691   1.495       .  S
O670      Cr1614   2.233       .  S
O671       Cr686   1.978       .  S
O671        C672   1.265   1_565  A
C672        O673   1.282       .  A
C672        C804   1.490       .  S
O673       Cr687   2.038       .  S
O674      Cr1615   1.937       .  S
O674        C675   1.249       .  A
C675        C737   1.460       .  S
O676       Cr685   1.985       .  S
O676       C1612   1.275       .  A
O677       Cr685   2.002       .  S
O677        C678   1.271       .  A
C678       O1607   1.255       .  A
C678       C1721   1.458       .  S
O679       Cr686   1.932   1_545  S
O679       C1606   1.254   1_545  A
O680       Cr686   2.082   1_545  S
O680        C681   1.293       .  A
C681        O682   1.247       .  A
C681        C706   1.451       .  S
O682       Cr687   1.877       .  S
O683       Cr687   2.015       .  S
O683        C684   1.274       .  A
C684       O1604   1.273   1_545  A
C684        C716   1.467       .  S
Cr685       O688   1.600       .  S
Cr686      O1598   2.234       .  S
Cr686      O1616   1.727   1_565  S
Cr687      O1602   1.935       .  S
Cr687      O1616   1.730       .  S
O688      Cr1614   1.727       .  S
O688      Cr1615   1.730       .  S
O689       Cr707   2.002       .  S
O689        C697   1.262       .  A
O690       Cr707   2.006       .  S
O690        C691   1.256       .  A
C691        O692   1.280       .  A
O692       Cr708   2.035       .  S
O693       Cr708   2.051       .  S
O693        C694   1.270       .  A
C694        O695   1.262       .  A
O695       Cr709   1.967       .  S
O696       Cr709   2.043       .  S
O696        C697   1.276       .  A
O698       Cr707   2.027       .  S
O698        C706   1.265       .  A
O699       Cr707   1.965       .  S
O699        C700   1.262       .  A
C700        O701   1.276       .  A
C700        C821   1.481       .  S
O701       Cr708   2.026       .  S
O702       Cr708   2.049       .  S
O702        C703   1.280       .  A
C703        O704   1.261       .  A
O704       Cr709   2.005       .  S
O705       Cr709   1.980       .  S
O705        C706   1.251       .  A
Cr707       O710   1.804       .  S
Cr708       O710   1.769       .  S
Cr709       O710   1.750       .  S
O711       Cr729   2.018       .  S
O711        C719   1.269       .  A
O712      Cr1657   1.993   1_545  S
O712        C713   1.250       .  A
C713        O714   1.282       .  A
O714       Cr730   2.056       .  S
O715       Cr730   2.032       .  S
O715        C716   1.270       .  A
C716       O1645   1.258   1_545  A
O717       Cr731   1.949       .  S
O717       C1644   1.258       .  A
O718       Cr731   2.035       .  S
O718        C719   1.273       .  A
O720       Cr729   2.012       .  S
O720        C728   1.260       .  A
O721       Cr729   1.954       .  S
O721        C722   1.262       .  A
C722       O1651   1.275       .  A
C722        C832   1.463       .  S
O723       Cr730   2.012       .  S
O723       C1650   1.273   1_545  A
O724      Cr1658   2.071       .  S
O724        C725   1.282       .  A
C725        O726   1.262       .  A
O726       Cr731   2.018       .  S
O727       Cr731   1.975       .  S
O727        C728   1.254       .  A
Cr729      O1640   1.985       .  S
Cr729       O732   1.805       .  S
Cr730      O1652   2.074   1_545  S
Cr730      O1660   1.778   1_545  S
Cr731       O732   1.762       .  S
O732      Cr1658   1.778       .  S
C733        C734   1.396       .  A
C733        C738   1.389       .  A
C733        H740   1.084       .  S
C734        C735   1.406       .  A
C735        C736   1.394       .  A
C735        N742   1.440       .  S
C736        C737   1.400       .  A
C736        H741   1.080       .  S
C737        C738   1.415       .  A
C738        N739   1.429       .  S
N739        O743   1.262       .  A
N739        O744   1.262       .  A
N742        O746   1.263       .  A
N742        O745   1.263       .  A
C747        C748   1.393       .  A
C747        C752   1.323       .  A
C747        H754   1.087       .  S
C748        C749   1.419       .  A
C749        C750   1.422       .  A
C749        N756   1.424       .  S
C750        C751   1.409       .  A
C750        H755   1.083       .  S
C751        C752   1.376       .  A
C752        N753   1.413       .  S
N753        O757   1.262       .  A
N753        O758   1.263       .  A
N756        O760   1.262       .  A
N756        O759   1.262       .  A
C761        C762   1.405       .  A
C761        C766   1.403       .  A
C761        H768   1.081       .  S
C762        C763   1.407       .  A
C763        C764   1.399       .  A
C763        N770   1.433       .  S
C764        C765   1.405       .  A
C764        H769   1.083       .  S
C765        C766   1.407       .  A
C766        N767   1.429       .  S
N767        O771   1.262       .  A
N770        O774   1.262       .  A
N770        O773   1.262       .  A
C775        C776   1.398       .  A
C775        C780   1.396       .  A
C775        H782   1.083       .  S
C776        C777   1.399       .  A
C777        C778   1.382       .  A
C777        N784   1.427       .  S
C778        C779   1.395       .  A
C778        H783   1.084       .  S
C779        C780   1.411       .  A
C780        N781   1.442       .  S
N781        O785   1.263       .  A
N781        O786   1.261       .  A
N784        O788   1.261       .  A
N784        O787   1.261       .  A
C789        C790   1.402   1_545  A
C789        C794   1.396       .  A
C789        H796   1.084       .  S
C790       C1719   1.405       .  A
C791       C1718   1.407       .  A
C791        C792   1.396       .  A
C791        N798   1.439       .  S
C792       C1721   1.401       .  A
C792        H797   1.084       .  S
C793       C1720   1.401       .  A
C793        C794   1.413   1_565  A
C793       C1606   1.457       .  S
C794        N795   1.433       .  S
N795        O799   1.262       .  A
N795        O800   1.262       .  A
N798        O802   1.262       .  A
N798        O801   1.263       .  A
C803        C804   1.403       .  A
C803        C808   1.398       .  A
C803        H810   1.084       .  S
C804       C1733   1.428   1_545  A
C805       C1732   1.426       .  A
C805        C806   1.412   1_556  A
C805        N812   1.439       .  S
C806       C1271   1.397       .  A
C807       C1270   1.395   1_545  A
C808        N809   1.429   1_556  S
N809        O813   1.260       .  A
N812        O816   1.262       .  A
N812        O815   1.263       .  A
C817        C818   1.401       .  A
C817        C822   1.400       .  A
C817        H824   1.084       .  S
C818        C819   1.412       .  A
C819        C820   1.401       .  A
C819        N826   1.429       .  S
C820        C821   1.403   1_655  A
C820        H825   1.084   1_655  S
C821        C822   1.415   1_455  A
C822        N823   1.429       .  S
N823        O827   1.262       .  A
N823        O828   1.262       .  A
N826        O830   1.262       .  A
N826        O829   1.262       .  A
C831       C1760   1.398       .  A
C831        C836   1.396       .  A
C831        H838   1.084       .  S
C832       C1759   1.396       .  A
C832        C833   1.408       .  A
C833        C834   1.394       .  A
C833        N840   1.429       .  S
C834        C835   1.404       .  A
C834        H839   1.083       .  S
C835       C1764   1.420       .  A
C836       C1763   1.419       .  A
C836        N837   1.429       .  S
N837        O841   1.262   1_565  A
N837        O842   1.262       .  A
N840        O844   1.262       .  A
N840        O843   1.262       .  A
C845        C846   1.397       .  A
C845        C850   1.389       .  A
C845        H852   1.084       .  S
C846        C847   1.415       .  A
C847        C848   1.396       .  A
C847        N854   1.438       .  S
C848        C849   1.394       .  A
C848        H853   1.083       .  S
C849        C850   1.405       .  A
C850        N851   1.428       .  S
N851        O855   1.261       .  A
N851        O856   1.261       .  A
N854        O858   1.258       .  A
N854        O857   1.263       .  A
C859        C860   1.365       .  A
C859        C864   1.333       .  A
C859        H866   1.092       .  S
C860        C861   1.406       .  A
C861        C862   1.402       .  A
C861        N868   1.428       .  S
C862        C863   1.400       .  A
C862        H867   1.083       .  S
C863        C864   1.451       .  A
C864        N865   1.448       .  S
N865        O869   1.260       .  A
N865        O870   1.258       .  A
N868        O872   1.262       .  A
N868        O871   1.262       .  A
C873        C874   1.397       .  A
C873        C878   1.391       .  A
C873        H880   1.084       .  S
C874        C875   1.424       .  A
C875        C876   1.411       .  A
C875        N882   1.440       .  S
C878        N879   1.429       .  S
N879        O883   1.262   1_556  A
N882        O886   1.262       .  A
N882        O885   1.263       .  A
C887        C888   1.406       .  A
C887        C892   1.389       .  A
C887        H894   1.083       .  S
C888        C889   1.413       .  A
C889        C890   1.393       .  A
C889        N896   1.434       .  S
C890        C891   1.399       .  A
C890        H895   1.078       .  S
C891        C892   1.405       .  A
C892        N893   1.429       .  S
N893        O897   1.262       .  A
N893        O898   1.262       .  A
N896        O900   1.263       .  A
N896        O899   1.262       .  A
C901       C1830   1.402       .  A
C901        C906   1.396       .  A
C901        H908   1.084       .  S
C902       C1829   1.401       .  A
C902        C903   1.413   1_565  A
C902       C1472   1.464       .  S
C903        C904   1.397       .  A
C903        N910   1.433       .  S
C904        C905   1.402   1_545  A
C904        H909   1.083       .  S
C905       C1834   1.408       .  A
C906       C1833   1.408       .  A
C906        N907   1.431       .  S
N907        O911   1.261       .  A
N907        O912   1.262       .  A
N910        O914   1.262       .  A
N910        O913   1.262       .  A
C915       C1844   1.406       .  A
C915        C920   1.418       .  A
C915        H922   1.083       .  S
C916       C1843   1.406   1_545  A
C916        C917   1.412       .  A
C917        C918   1.395       .  A
C917        N924   1.431       .  S
C918        C919   1.404       .  A
C918        H923   1.084       .  S
C919       C1848   1.424   1_545  A
C920       C1847   1.421       .  A
C920        N921   1.431       .  S
N921        O925   1.262       .  A
N921        O926   1.262       .  A
N924        O928   1.262       .  A
N924        O927   1.262       .  A
C929        C931   1.560       .  S
C929        C933   1.545       .  S
C929        C932   1.510       .  S
C929       C1352   1.499       .  S
C930        C934   1.573       .  S
C930        C936   1.582       .  S
C930        C935   1.549       .  S
C930       C1369   1.525       .  S
C931        C939   1.398       .  A
C931        C934   1.383       .  A
C932        C943   1.361       .  A
C932        C935   1.376       .  A
C933        C947   1.397       .  A
C933        C936   1.390       .  A
C934        C937   1.405       .  A
C935        C941   1.403       .  A
C937        N938   1.366       .  A
C937        H950   1.075       .  S
N938        C939   1.365       .  A
N938       C1055   1.460       .  S
C939        H940   1.083       .  S
C941        N942   1.371       .  A
N942        C943   1.349       .  A
N942       C1844   1.449       .  S
C943        H949   1.081       .  S
C944        N945   1.365       .  A
C944        H946   1.078       .  S
N945       C1027   1.463       .  S
C947        H948   1.080       .  S
O952       Cr970   1.981       .  S
O952        C960   1.259       .  A
O953       Cr970   1.798       .  S
O953        C954   1.277       .  A
C954        O955   1.337       .  A
C954       C1021   1.457       .  S
O955       Cr971   2.209       .  S
O956       Cr971   1.971       .  S
O956        C957   1.261       .  A
C957        O958   1.278       .  A
C957       C1338   1.476       .  S
O958       Cr972   2.016       .  S
O959       Cr972   1.953       .  S
O959        C960   1.249       .  A
C960       C1355   1.468       .  S
O961       Cr970   2.022       .  S
O961        C969   1.284       .  A
O962       Cr970   1.964       .  S
O962        C963   1.260       .  A
C963        O964   1.250       .  A
C963       C1324   1.398       .  S
O964       Cr971   1.926       .  S
O965       Cr971   2.101       .  S
O965        C966   1.296       .  A
C966        O967   1.240       .  A
C966       C1036   1.472       .  S
O967       Cr972   1.844       .  S
O968       Cr972   2.003       .  S
O968        C969   1.270       .  A
C969       C1046   1.494       .  S
Cr970       O973   1.599       .  S
Cr971       O973   1.740       .  S
Cr972       O973   1.736       .  S
C974        C976   1.574       .  S
C974        C978   1.579       .  S
C974        C977   1.542       .  S
C974       C1313   1.517       .  S
C975        C979   1.538       .  S
C975        C981   1.542       .  S
C975        C980   1.539       .  S
C975       C1327   1.484       .  S
C976        C984   1.419       .  A
C976        C979   1.361       .  A
C977        C988   1.354       .  A
C977        C980   1.403       .  A
C978        C992   1.417       .  A
C978        C981   1.365       .  A
C979        C982   1.387       .  A
C980        C986   1.391       .  A
C981        C989   1.390       .  A
C982        N983   1.348       .  A
C982        H995   1.083       .  S
N983        C984   1.371       .  A
N983       C1033   1.456       .  S
C984        H985   1.075       .  S
C986        N987   1.369       .  A
C986        H996   1.082       .  S
N987        C988   1.351       .  A
N987       C1341   1.436       .  S
C988        H994   1.082       .  S
C989        N990   1.349       .  A
C989        H991   1.079       .  S
N990        C992   1.376       .  A
N990       C1049   1.468       .  S
C992        H993   1.087       .  S
O997      Cr1015   2.056       .  S
O997       C1005   1.288       .  A
O998      Cr1015   1.946       .  S
O998        C999   1.254       .  A
C999       O1000   1.289       .  A
C999       C1043   1.514       .  S
O1001     Cr1016   2.019       .  S
O1001      C1002   1.268       .  A
C1002      O1003   1.269       .  A
C1002      C1383   1.497       .  S
O1003     Cr1017   2.011       .  S
O1004      C1005   1.237       .  A
C1005      C1310   1.426       .  S
O1006     Cr1015   1.973   1_545  S
O1007     Cr1015   2.012       .  S
O1007      C1008   1.269       .  A
O1009     Cr1016   1.940       .  S
O1010     Cr1016   2.091       .  S
O1010      C1011   1.289       .  A
C1011      O1012   1.249       .  A
C1011      C1058   1.443       .  S
O1012     Cr1017   1.886       .  S
O1013     Cr1017   2.075       .  S
O1013      C1014   1.268       .  A
C1014      C1024   1.480       .  S
Cr1015     O1018   1.739       .  S
O1019     Cr1037   2.057       .  S
O1019      C1027   1.284       .  A
O1020      C1021   1.244       .  A
C1021      O1022   1.277       .  A
O1022     Cr1038   2.052       .  S
O1023     Cr1038   2.040       .  S
O1023      C1024   1.270       .  A
O1025     Cr1039   1.977       .  S
O1026     Cr1039   2.000       .  S
O1026      C1027   1.268       .  A
O1028     Cr1037   2.012       .  S
O1028      C1036   1.245       .  A
O1029     Cr1037   1.983       .  S
O1029      C1030   1.263       .  A
C1030      O1031   1.268       .  A
C1030      C1299   1.482       .  S
O1032      C1033   1.281       .  A
C1033      O1034   1.265       .  A
O1034     Cr1039   1.973       .  S
O1035     Cr1039   1.960       .  S
O1035      C1036   1.264       .  A
Cr1037     O1040   1.796       .  S
Cr1039     O1040   1.756       .  S
O1041     Cr1059   1.989       .  S
O1041      C1049   1.261       .  A
O1042     Cr1059   2.016       .  S
O1042      C1043   1.259       .  A
C1043      O1044   1.287       .  A
O1044     Cr1060   2.062       .  S
O1045     Cr1060   2.025       .  S
O1045      C1046   1.269       .  A
C1046      O1047   1.269       .  A
O1047     Cr1061   1.972       .  S
O1048     Cr1061   2.076       .  S
O1048      C1049   1.288       .  A
O1050     Cr1059   2.033       .  S
O1050      C1058   1.261       .  A
O1051     Cr1059   1.966       .  S
O1051      C1052   1.261       .  A
C1052      O1053   1.270       .  A
C1052      C1282   1.473       .  S
O1053     Cr1060   2.008       .  S
O1054     Cr1060   2.073       .  S
O1054      C1055   1.285       .  A
C1055      O1056   1.254       .  A
O1056     Cr1061   1.978       .  S
O1057     Cr1061   1.957       .  S
O1057      C1058   1.233       .  A
Cr1059     O1062   1.814       .  S
Cr1060     O1062   1.764       .  S
Cr1061     O1062   1.761       .  S
C1063      C1065   1.564       .  S
C1063      C1067   1.563       .  S
C1063      C1066   1.505       .  S
C1063      C1240   1.515       .  S
C1064      C1068   1.573       .  S
C1064      C1070   1.578       .  S
C1064      C1069   1.532       .  S
C1064      C1254   1.518       .  S
C1065      C1073   1.405       .  A
C1065      C1068   1.392       .  A
C1066      C1077   1.359       .  A
C1066      C1069   1.371       .  A
C1067      C1081   1.401       .  A
C1067      C1070   1.389       .  A
C1068      C1071   1.399       .  A
C1069      C1075   1.395       .  A
C1071      N1072   1.356       .  A
C1071      H1084   1.085       .  S
N1072      C1073   1.363       .  A
N1072      C1167   1.458       .  S
C1073      H1074   1.077       .  S
C1075      N1076   1.363       .  A
N1076      C1077   1.348       .  A
N1076      C1271   1.434       .  S
C1077      H1083   1.083       .  S
C1078      N1079   1.363   1_565  A
C1078      H1080   1.079       .  S
N1079      C1183   1.465   1_545  S
C1081      H1082   1.072       .  S
O1086     Cr1104   2.028       .  S
O1086      C1094   1.278       .  A
O1087     Cr1104   1.915       .  S
O1087      C1088   1.239       .  A
C1088      O1089   1.281       .  A
C1088      C1177   1.494       .  S
O1089     Cr1105   2.096       .  S
O1090     Cr1105   1.980       .  S
O1090      C1091   1.258       .  A
C1091      O1092   1.270       .  A
C1091      C1226   1.474       .  S
O1092     Cr1106   2.027       .  S
O1093     Cr1106   1.888       .  S
O1093      C1094   1.231       .  A
C1094      C1243   1.420       .  S
O1095     Cr1104   1.953       .  S
O1095      C1103   1.248       .  A
O1096     Cr1104   2.025       .  S
O1096      C1097   1.270       .  A
C1097      O1098   1.257       .  A
C1097      C1215   1.423       .  S
O1098     Cr1105   1.904       .  S
O1099     Cr1105   2.135       .  S
O1099      C1100   1.302       .  A
C1100      O1101   1.239       .  A
C1100      C1192   1.471       .  S
O1101     Cr1106   1.872       .  S
O1102     Cr1106   2.076       .  S
O1102      C1103   1.278       .  A
C1103      C1158   1.491       .  S
Cr1104     O1107   1.739       .  S
Cr1105     O1107   1.764       .  S
Cr1106     O1107   1.767       .  S
C1108      C1110   1.568       .  S
C1108      C1112   1.556       .  S
C1108      C1111   1.540       .  S
C1108      C1198   1.509       .  S
C1109      C1113   1.582       .  S
C1109      C1115   1.563       .  S
C1109      C1114   1.533       .  S
C1109      C1212   1.501       .  S
C1110      C1118   1.415       .  A
C1110      C1113   1.371       .  A
C1111      C1122   1.362       .  A
C1111      C1114   1.397       .  A
C1112      C1126   1.409       .  A
C1112      C1115   1.368       .  A
C1113      C1116   1.406       .  A
C1114      C1120   1.391       .  A
C1115      C1123   1.397       .  A
C1116      N1117   1.359       .  A
C1116      H1129   1.081       .  S
N1117      C1118   1.377       .  A
N1117      C1189   1.474       .  S
C1118      H1119   1.081       .  S
C1120      N1121   1.364       .  A
C1120      H1130   1.077       .  S
N1121      C1122   1.352       .  A
N1121      C1693   1.438       .  S
C1122      H1128   1.083       .  S
C1123      N1124   1.353       .  A
C1123      H1125   1.083       .  S
N1124      C1126   1.369       .  A
N1124      C1161   1.462       .  S
C1126      H1127   1.080       .  S
O1131     Cr1149   1.998       .  S
O1131      C1139   1.265       .  A
O1132     Cr1149   1.825       .  S
O1132      C1133   1.274       .  A
C1133      O1134   1.339       .  A
C1133      C1155   1.488       .  S
O1135     Cr1150   1.975       .  S
O1135      C1136   1.263       .  A
C1136      O1137   1.282       .  A
C1136      C1268   1.490       .  S
O1137     Cr1151   2.040       .  S
O1138      C1139   1.248   1_545  A
C1139      C1201   1.459       .  S
O1140     Cr1149   1.981       .  S
O1141     Cr1149   2.005       .  S
O1141      C1142   1.271       .  A
O1143     Cr1150   1.930       .  S
O1144     Cr1150   2.085       .  S
O1144      C1145   1.294       .  A
C1145      O1146   1.248       .  A
C1145      C1170   1.452       .  S
O1146     Cr1151   1.878       .  S
O1147     Cr1151   2.019       .  S
O1147      C1148   1.275       .  A
C1148      C1180   1.470       .  S
Cr1149     O1152   1.600   1_565  S
O1153     Cr1171   1.999       .  S
O1153      C1161   1.261       .  A
O1154     Cr1171   2.004       .  S
O1154      C1155   1.256       .  A
C1155      O1156   1.279       .  A
O1156     Cr1172   2.028       .  S
O1157     Cr1172   2.046       .  S
O1157      C1158   1.269       .  A
C1158      O1159   1.264       .  A
O1159     Cr1173   1.971       .  S
O1160     Cr1173   2.053       .  S
O1160      C1161   1.279       .  A
O1162     Cr1171   2.032       .  S
O1162      C1170   1.265       .  A
O1163     Cr1171   1.960       .  S
O1163      C1164   1.262       .  A
C1164      O1165   1.273       .  A
C1164      C1285   1.470       .  S
O1165     Cr1172   2.018       .  S
O1166     Cr1172   2.047       .  S
O1166      C1167   1.279       .  A
C1167      O1168   1.261       .  A
O1168     Cr1173   2.006       .  S
O1169     Cr1173   1.981       .  S
O1169      C1170   1.249       .  A
Cr1171     O1174   1.806       .  S
Cr1172     O1174   1.769       .  S
Cr1173     O1174   1.748       .  S
O1175     Cr1193   2.023   1_545  S
O1175      C1183   1.269   1_545  A
O1176      C1177   1.248       .  A
C1177      O1178   1.283       .  A
O1178     Cr1194   2.055       .  S
O1179     Cr1194   2.038       .  S
O1179      C1180   1.271       .  A
O1181     Cr1195   1.955       .  S
O1182     Cr1195   2.027       .  S
O1182      C1183   1.270       .  A
O1184     Cr1193   2.011       .  S
O1184      C1192   1.261       .  A
O1185     Cr1193   1.960       .  S
O1185      C1186   1.262       .  A
C1186      C1296   1.478       .  S
O1187     Cr1194   2.012       .  S
O1188      C1189   1.283       .  A
C1189      O1190   1.261       .  A
O1190     Cr1195   2.013       .  S
O1191     Cr1195   1.974       .  S
O1191      C1192   1.256       .  A
Cr1193     O1196   1.803       .  S
Cr1195     O1196   1.764       .  S
C1197      C1198   1.397       .  A
C1197      C1202   1.390       .  A
C1197      H1204   1.084       .  S
C1198      C1199   1.403       .  A
C1199      C1200   1.393       .  A
C1199      N1206   1.440       .  S
C1200      C1201   1.400       .  A
C1200      H1205   1.079       .  S
C1201      C1202   1.415       .  A
C1202      N1203   1.430   1_565  S
N1203      O1207   1.262       .  A
N1203      O1208   1.262       .  A
N1206      O1210   1.262       .  A
N1206      O1209   1.263       .  A
C1211      C1212   1.400       .  A
C1211      C1216   1.327       .  A
C1211      H1218   1.087       .  S
C1212      C1213   1.417       .  A
C1213      C1214   1.417       .  A
C1213      N1220   1.424       .  S
C1214      C1215   1.407       .  A
C1214      H1219   1.083       .  S
C1215      C1216   1.376       .  A
C1216      N1217   1.420       .  S
N1217      O1221   1.262       .  A
N1217      O1222   1.262       .  A
N1220      O1224   1.262       .  A
N1220      O1223   1.262       .  A
C1225      C1226   1.403       .  A
C1225      C1230   1.401       .  A
C1225      H1232   1.068       .  S
C1226      C1227   1.403       .  A
C1227      C1228   1.402       .  A
C1227      N1234   1.429       .  S
C1228      C1229   1.407       .  A
C1228      H1233   1.080       .  S
C1229      C1230   1.405       .  A
C1229      N1585   1.433   1_554  S
C1230      N1231   1.428       .  S
N1231      O1235   1.261       .  A
N1231      O1700   1.262       .  A
N1234      O1238   1.261       .  A
N1234      O1237   1.262       .  A
O1236      N1695   1.262       .  A
C1239      C1240   1.397       .  A
C1239      C1244   1.394       .  A
C1239      H1246   1.083       .  S
C1240      C1241   1.399       .  A
C1241      C1242   1.381       .  A
C1241      N1248   1.428       .  S
C1242      C1243   1.395       .  A
C1242      H1247   1.084       .  S
C1243      C1244   1.412       .  A
C1244      N1245   1.440       .  S
N1245      O1249   1.263       .  A
N1245      O1250   1.260       .  A
N1248      O1252   1.261       .  A
N1248      O1251   1.262       .  A
C1253      C1254   1.403       .  A
C1253      C1258   1.395       .  A
C1253      H1260   1.084       .  S
C1255      C1256   1.397       .  A
C1255      N1262   1.440       .  S
C1256      H1261   1.084       .  S
C1257      C1258   1.413       .  A
C1258      N1259   1.433       .  S
N1259      O1263   1.262       .  A
N1259      O1264   1.262       .  A
N1262      O1266   1.262       .  A
N1262      O1265   1.263       .  A
C1267      C1268   1.403       .  A
C1267      C1272   1.399       .  A
C1267      H1274   1.084       .  S
C1269      C1270   1.410       .  A
C1269      N1276   1.439       .  S
C1270      H1739   1.083       .  S
C1271      C1736   1.407   1_554  A
C1272      C1735   1.404       .  A
C1272      N1273   1.429       .  S
N1273      O1277   1.260       .  A
N1273      O1742   1.262       .  A
H1275      C1734   1.083       .  S
N1276      O1280   1.261       .  A
N1276      O1279   1.263       .  A
O1278      N1737   1.263       .  A
C1281      C1282   1.402       .  A
C1281      C1286   1.396       .  A
C1281      H1288   1.084       .  S
C1282      C1283   1.412       .  A
C1283      C1284   1.399   1_655  A
C1283      N1290   1.429       .  S
C1284      C1285   1.401       .  A
C1284      H1289   1.084       .  S
C1285      C1286   1.411   1_455  A
C1286      N1287   1.429       .  S
N1287      O1291   1.262   1_655  A
N1287      O1292   1.262       .  A
N1290      O1294   1.262       .  A
N1290      O1293   1.262       .  A
C1295      C1300   1.397       .  A
C1295      H1302   1.084       .  S
C1296      C1297   1.415       .  A
C1297      C1298   1.398       .  A
C1297      N1304   1.429       .  S
C1298      C1299   1.403       .  A
C1298      H1303   1.084       .  S
C1300      N1301   1.429       .  S
N1301      O1305   1.262       .  A
N1301      O1306   1.262       .  A
N1304      O1308   1.262       .  A
N1304      O1307   1.262   1_565  A
C1309      C1310   1.396       .  A
C1309      C1314   1.390       .  A
C1309      H1316   1.084       .  S
C1310      C1311   1.406       .  A
C1311      C1312   1.392       .  A
C1311      N1318   1.426       .  S
C1312      C1313   1.395       .  A
C1312      H1317   1.083       .  S
C1313      C1314   1.406       .  A
C1314      N1315   1.427       .  S
N1315      O1319   1.261       .  A
N1315      O1320   1.261       .  A
N1318      O1322   1.261       .  A
N1318      O1321   1.261       .  A
C1323      C1324   1.365       .  A
C1323      C1328   1.333       .  A
C1323      H1330   1.091       .  S
C1324      C1325   1.405       .  A
C1325      C1326   1.401       .  A
C1325      N1332   1.427       .  S
C1326      C1327   1.399       .  A
C1326      H1331   1.083       .  S
C1327      C1328   1.453       .  A
C1328      N1329   1.448       .  S
N1329      O1333   1.260       .  A
N1329      O1334   1.259       .  A
N1332      O1336   1.262       .  A
N1332      O1335   1.262       .  A
C1337      C1338   1.397       .  A
C1337      C1342   1.392       .  A
C1337      H1344   1.084       .  S
C1338      C1339   1.424       .  A
C1339      C1340   1.409       .  A
C1339      N1346   1.440       .  S
C1340      C1805   1.397       .  A
C1340      H1809   1.082       .  S
C1341      C1804   1.399   1_554  A
C1341      C1806   1.411   1_554  A
C1342      C1805   1.411       .  A
C1342      N1343   1.429       .  S
N1343      O1347   1.261       .  A
N1343      O1812   1.261       .  A
H1345      C1804   1.082   1_554  S
N1346      O1350   1.261       .  A
N1346      O1349   1.263       .  A
O1348      N1807   1.262       .  A
C1351      C1352   1.407       .  A
C1351      C1356   1.389       .  A
C1351      H1358   1.083       .  S
C1352      C1353   1.412       .  A
C1353      C1354   1.395       .  A
C1353      N1360   1.433       .  S
C1354      C1355   1.401       .  A
C1354      H1359   1.077       .  S
C1355      C1356   1.405       .  A
C1356      N1357   1.430       .  S
N1357      O1361   1.262       .  A
N1357      O1362   1.262       .  A
N1360      O1364   1.263       .  A
N1360      O1363   1.262       .  A
C1365      C1370   1.395       .  A
C1365      H1372   1.084       .  S
C1366      C1367   1.413       .  A
C1367      C1368   1.397       .  A
C1367      N1374   1.433       .  S
C1368      C1369   1.401       .  A
C1368      H1373   1.083       .  S
C1370      N1371   1.431       .  S
N1371      O1375   1.262       .  A
N1371      O1376   1.262       .  A
N1374      O1378   1.262       .  A
N1374      O1377   1.262       .  A
C1379      C1384   1.420       .  A
C1379      H1386   1.082       .  S
C1380      C1381   1.414       .  A
C1380      N1406   1.449   1_554  S
C1381      C1382   1.392       .  A
C1381      N1388   1.432       .  S
C1382      C1383   1.403       .  A
C1382      H1387   1.084       .  S
C1384      N1385   1.441       .  S
N1385      O1389   1.263       .  A
N1385      O1390   1.262       .  A
N1388      O1392   1.261   1_554  A
N1388      O1391   1.263       .  A
C1393      C1395   1.565       .  S
C1393      C1397   1.545       .  S
C1393      C1396   1.515       .  S
C1393      C1816   1.503       .  S
C1394      C1398   1.569       .  S
C1394      C1400   1.580       .  S
C1394      C1399   1.545       .  S
C1394      C1833   1.525       .  S
C1395      C1403   1.402       .  A
C1395      C1398   1.387       .  A
C1396      C1407   1.363       .  A
C1396      C1399   1.378       .  A
C1397      C1411   1.396       .  A
C1397      C1400   1.389       .  A
C1398      C1401   1.401       .  A
C1399      C1405   1.401       .  A
C1401      N1402   1.360       .  A
C1401      H1414   1.084       .  S
N1402      C1403   1.367       .  A
N1402      C1519   1.460       .  S
C1403      H1404   1.081       .  S
C1405      N1406   1.368       .  A
N1406      C1407   1.351       .  A
C1407      H1413   1.081       .  S
C1408      N1409   1.363       .  A
C1408      H1410   1.078       .  S
N1409      C1491   1.460       .  S
C1411      H1412   1.080       .  S
O1416     Cr1434   1.982       .  S
O1416      C1424   1.260       .  A
O1417     Cr1434   1.794       .  S
O1417      C1418   1.276       .  A
C1418      O1419   1.339       .  A
C1418      C1485   1.459       .  S
O1419     Cr1435   2.216       .  S
O1420     Cr1435   1.977       .  S
O1420      C1421   1.261       .  A
C1421      O1422   1.277       .  A
C1421      C1802   1.479       .  S
O1422     Cr1436   2.016       .  S
O1423     Cr1436   1.950       .  S
O1423      C1424   1.249       .  A
C1424      C1819   1.467       .  S
O1425     Cr1434   2.018       .  S
O1425      C1433   1.282       .  A
O1426     Cr1434   1.965       .  S
O1426      C1427   1.261       .  A
C1427      O1428   1.248       .  A
C1427      C1788   1.399       .  S
O1428     Cr1435   1.924       .  S
O1429     Cr1435   2.107       .  S
O1429      C1430   1.299       .  A
C1430      O1431   1.240       .  A
C1430      C1500   1.475       .  S
O1431     Cr1436   1.842       .  S
O1432     Cr1436   2.007       .  S
O1432      C1433   1.270       .  A
C1433      C1510   1.496       .  S
Cr1434     O1437   1.599       .  S
Cr1435     O1437   1.740       .  S
Cr1436     O1437   1.737       .  S
C1438      C1440   1.574       .  S
C1438      C1442   1.577       .  S
C1438      C1441   1.541       .  S
C1438      C1777   1.516       .  S
C1439      C1443   1.538       .  S
C1439      C1445   1.542       .  S
C1439      C1444   1.536       .  S
C1439      C1791   1.482       .  S
C1440      C1448   1.419       .  A
C1440      C1443   1.362       .  A
C1441      C1452   1.353       .  A
C1441      C1444   1.403       .  A
C1442      C1456   1.415       .  A
C1442      C1445   1.365       .  A
C1443      C1446   1.385       .  A
C1444      C1450   1.389       .  A
C1445      C1453   1.390       .  A
C1446      N1447   1.347       .  A
C1446      H1459   1.083       .  S
N1447      C1448   1.371       .  A
N1447      C1497   1.454       .  S
C1448      H1449   1.075       .  S
C1450      N1451   1.368       .  A
C1450      H1460   1.082       .  S
N1451      C1452   1.351       .  A
N1451      C1805   1.434       .  S
C1452      H1458   1.082       .  S
C1453      N1454   1.349       .  A
C1453      H1455   1.081       .  S
N1454      C1456   1.375       .  A
N1454      C1513   1.467       .  S
C1456      H1457   1.085       .  S
O1461     Cr1479   2.055       .  S
O1461      C1469   1.287       .  A
O1462     Cr1479   1.946       .  S
O1462      C1463   1.254       .  A
C1463      O1464   1.290       .  A
C1463      C1507   1.516       .  S
O1465     Cr1480   2.018       .  S
O1465      C1466   1.268       .  A
C1466      O1467   1.271       .  A
C1466      C1847   1.503       .  S
O1467     Cr1481   2.016       .  S
O1468      C1469   1.235       .  A
C1469      C1774   1.420       .  S
O1470     Cr1479   1.972   1_545  S
O1471     Cr1479   2.007       .  S
O1471      C1472   1.268       .  A
O1473     Cr1480   1.939       .  S
O1474     Cr1480   2.088       .  S
O1474      C1475   1.289       .  A
C1475      O1476   1.248       .  A
C1475      C1522   1.444       .  S
O1476     Cr1481   1.887       .  S
O1477     Cr1481   2.070       .  S
O1477      C1478   1.266       .  A
C1478      C1488   1.478       .  S
Cr1479     O1482   1.740       .  S
O1483     Cr1501   2.050       .  S
O1483      C1491   1.282       .  A
O1484      C1485   1.246       .  A
C1485      O1486   1.277       .  A
O1486     Cr1502   2.055       .  S
O1487     Cr1502   2.042       .  S
O1487      C1488   1.271       .  A
O1489     Cr1503   1.984       .  S
O1490     Cr1503   1.995       .  S
O1490      C1491   1.265       .  A
O1492     Cr1501   2.010       .  S
O1492      C1500   1.245       .  A
O1493     Cr1501   1.982       .  S
O1493      C1494   1.262       .  A
C1494      O1495   1.267       .  A
C1494      C1763   1.483       .  S
O1496      C1497   1.281       .  A
C1497      O1498   1.263       .  A
O1498     Cr1503   1.969       .  S
O1499     Cr1503   1.970       .  S
O1499      C1500   1.267       .  A
Cr1501     O1504   1.795       .  S
Cr1503     O1504   1.754       .  S
O1505     Cr1523   1.988       .  S
O1505      C1513   1.261       .  A
O1506     Cr1523   2.014       .  S
O1506      C1507   1.258       .  A
C1507      O1508   1.287       .  A
O1508     Cr1524   2.066       .  S
O1509     Cr1524   2.031       .  S
O1509      C1510   1.270       .  A
C1510      O1511   1.267       .  A
O1511     Cr1525   1.969       .  S
O1512     Cr1525   2.075       .  S
O1512      C1513   1.288       .  A
O1514     Cr1523   2.026       .  S
O1514      C1522   1.260       .  A
O1515     Cr1523   1.963       .  S
O1515      C1516   1.261       .  A
C1516      O1517   1.273       .  A
C1516      C1746   1.476       .  S
O1517     Cr1524   2.020       .  S
O1518     Cr1524   2.069       .  S
O1518      C1519   1.284       .  A
C1519      O1520   1.256       .  A
O1520     Cr1525   1.985       .  S
O1521     Cr1525   1.961       .  S
O1521      C1522   1.237       .  A
Cr1523     O1526   1.814       .  S
Cr1524     O1526   1.767       .  S
Cr1525     O1526   1.764       .  S
C1527      C1529   1.560       .  S
C1527      C1531   1.562       .  S
C1527      C1530   1.507       .  S
C1527      C1704   1.513       .  S
C1528      C1532   1.575       .  S
C1528      C1534   1.574       .  S
C1528      C1533   1.535       .  S
C1528      C1718   1.519       .  S
C1529      C1537   1.402       .  A
C1529      C1532   1.391       .  A
C1530      C1541   1.360       .  A
C1530      C1533   1.372       .  A
C1531      C1545   1.401       .  A
C1531      C1534   1.389       .  A
C1532      C1535   1.401       .  A
C1533      C1539   1.395       .  A
C1535      N1536   1.359       .  A
C1535      H1548   1.083       .  S
N1536      C1537   1.361       .  A
N1536      C1631   1.459       .  S
C1537      H1538   1.077       .  S
C1539      N1540   1.364       .  A
N1540      C1541   1.348       .  A
N1540      C1735   1.435       .  S
C1541      H1547   1.083       .  S
C1542      N1543   1.362   1_565  A
C1542      H1544   1.079       .  S
N1543      C1647   1.463   1_545  S
C1545      H1546   1.076       .  S
O1550     Cr1568   2.029       .  S
O1550      C1558   1.278       .  A
O1551     Cr1568   1.921       .  S
O1551      C1552   1.240       .  A
C1552      O1553   1.280       .  A
C1552      C1641   1.496       .  S
O1553     Cr1569   2.092       .  S
O1554     Cr1569   1.982       .  S
O1554      C1555   1.258       .  A
C1555      O1556   1.270       .  A
C1555      C1690   1.476       .  S
O1556     Cr1570   2.021       .  S
O1557     Cr1570   1.890       .  S
O1557      C1558   1.232       .  A
C1558      C1707   1.422       .  S
O1559     Cr1568   1.954       .  S
O1559      C1567   1.248       .  A
O1560     Cr1568   2.027       .  S
O1560      C1561   1.270       .  A
C1561      O1562   1.257       .  A
C1561      C1679   1.427       .  S
O1562     Cr1569   1.905       .  S
O1563     Cr1569   2.132       .  S
O1563      C1564   1.301       .  A
C1564      O1565   1.241       .  A
C1564      C1656   1.472       .  S
O1565     Cr1570   1.876       .  S
O1566     Cr1570   2.076       .  S
O1566      C1567   1.277       .  A
C1567      C1622   1.492       .  S
Cr1568     O1571   1.741       .  S
Cr1569     O1571   1.766       .  S
Cr1570     O1571   1.767       .  S
C1572      C1574   1.570       .  S
C1572      C1576   1.554       .  S
C1572      C1575   1.541       .  S
C1572      C1662   1.509       .  S
C1573      C1577   1.585       .  S
C1573      C1579   1.560       .  S
C1573      C1578   1.532       .  S
C1573      C1676   1.502       .  S
C1574      C1582   1.416       .  A
C1574      C1577   1.373       .  A
C1575      C1586   1.365       .  A
C1575      C1578   1.397       .  A
C1576      C1590   1.408       .  A
C1576      C1579   1.367       .  A
C1577      C1580   1.407       .  A
C1578      C1584   1.389       .  A
C1579      C1587   1.395       .  A
C1580      N1581   1.359       .  A
C1580      H1593   1.081       .  S
N1581      C1582   1.377       .  A
N1581      C1653   1.476       .  S
C1582      H1583   1.080       .  S
C1584      N1585   1.363       .  A
C1584      H1594   1.077       .  S
N1585      C1586   1.350       .  A
C1586      H1592   1.084   1_556  S
C1587      N1588   1.352       .  A
C1587      H1589   1.083       .  S
N1588      C1590   1.368       .  A
N1588      C1625   1.460       .  S
C1590      H1591   1.080       .  S
O1595     Cr1613   1.999       .  S
O1595      C1603   1.266       .  A
O1596     Cr1613   1.829       .  S
O1596      C1597   1.274       .  A
C1597      O1598   1.341       .  A
C1597      C1619   1.495       .  S
O1599     Cr1614   1.980       .  S
O1599      C1600   1.265       .  A
C1600      O1601   1.281       .  A
C1600      C1732   1.487       .  S
O1601     Cr1615   2.031       .  S
O1602      C1603   1.248   1_545  A
C1603      C1665   1.458       .  S
O1604     Cr1613   1.980       .  S
O1605     Cr1613   2.001       .  S
O1605      C1606   1.270       .  A
O1607     Cr1614   1.934       .  S
O1608     Cr1614   2.082       .  S
O1608      C1609   1.293       .  A
C1609      O1610   1.248       .  A
C1609      C1634   1.450       .  S
O1610     Cr1615   1.879       .  S
O1611     Cr1615   2.015       .  S
O1611      C1612   1.273       .  A
C1612      C1644   1.471       .  S
Cr1613     O1616   1.601   1_565  S
O1617     Cr1635   1.997       .  S
O1617      C1625   1.261       .  A
O1618     Cr1635   2.008       .  S
O1618      C1619   1.257       .  A
C1619      O1620   1.280       .  A
O1620     Cr1636   2.034       .  S
O1621     Cr1636   2.049       .  S
O1621      C1622   1.270       .  A
C1622      O1623   1.264       .  A
O1623     Cr1637   1.970       .  S
O1624     Cr1637   2.049       .  S
O1624      C1625   1.278       .  A
O1626     Cr1635   2.032       .  S
O1626      C1634   1.265       .  A
O1627     Cr1635   1.962       .  S
O1627      C1628   1.261       .  A
C1628      O1629   1.274       .  A
C1628      C1749   1.476       .  S
O1629     Cr1636   2.024       .  S
O1630     Cr1636   2.051       .  S
O1630      C1631   1.280       .  A
C1631      O1632   1.260       .  A
O1632     Cr1637   2.003       .  S
O1633     Cr1637   1.978       .  S
O1633      C1634   1.248       .  A
Cr1635     O1638   1.805       .  S
Cr1636     O1638   1.767       .  S
Cr1637     O1638   1.750       .  S
O1639     Cr1657   2.019   1_545  S
O1639      C1647   1.268   1_545  A
O1640      C1641   1.246       .  A
C1641      O1642   1.283       .  A
O1642     Cr1658   2.058       .  S
O1643     Cr1658   2.038       .  S
O1643      C1644   1.272       .  A
O1645     Cr1659   1.953       .  S
O1646     Cr1659   2.027       .  S
O1646      C1647   1.270       .  A
O1648     Cr1657   2.014       .  S
O1648      C1656   1.262       .  A
O1649     Cr1657   1.957       .  S
O1649      C1650   1.261       .  A
C1650      C1760   1.471       .  S
O1651     Cr1658   2.014       .  S
O1652      C1653   1.283       .  A
C1653      O1654   1.261       .  A
O1654     Cr1659   2.016       .  S
O1655     Cr1659   1.971       .  S
O1655      C1656   1.256       .  A
Cr1657     O1660   1.804       .  S
Cr1659     O1660   1.765       .  S
C1661      C1662   1.396       .  A
C1661      C1666   1.390       .  A
C1661      H1668   1.084       .  S
C1662      C1663   1.405       .  A
C1663      C1664   1.393       .  A
C1663      N1670   1.440       .  S
C1664      C1665   1.399       .  A
C1664      H1669   1.079       .  S
C1665      C1666   1.416       .  A
C1666      N1667   1.430   1_565  S
N1667      O1671   1.262       .  A
N1667      O1672   1.262       .  A
N1670      O1674   1.263       .  A
N1670      O1673   1.263       .  A
C1675      C1676   1.397       .  A
C1675      C1680   1.325       .  A
C1675      H1682   1.087       .  S
C1676      C1677   1.417       .  A
C1677      C1678   1.420       .  A
C1677      N1684   1.424       .  S
C1678      C1679   1.409       .  A
C1678      H1683   1.083       .  S
C1679      C1680   1.377       .  A
C1680      N1681   1.418       .  S
N1681      O1685   1.262       .  A
N1681      O1686   1.262       .  A
N1684      O1688   1.262       .  A
N1684      O1687   1.262       .  A
C1689      C1690   1.405       .  A
C1689      C1694   1.404       .  A
C1689      H1696   1.082       .  S
C1690      C1691   1.406       .  A
C1691      C1692   1.398       .  A
C1691      N1698   1.433       .  S
C1692      C1693   1.406       .  A
C1692      H1697   1.083       .  S
C1693      C1694   1.409       .  A
C1694      N1695   1.428       .  S
N1695      O1699   1.262       .  A
N1698      O1702   1.262       .  A
N1698      O1701   1.263       .  A
C1703      C1704   1.398       .  A
C1703      C1708   1.395       .  A
C1703      H1710   1.083       .  S
C1704      C1705   1.401       .  A
C1705      C1706   1.381       .  A
C1705      N1712   1.429       .  S
C1706      C1707   1.394       .  A
C1706      H1711   1.084       .  S
C1707      C1708   1.410       .  A
C1708      N1709   1.442       .  S
N1709      O1713   1.263       .  A
N1709      O1714   1.261       .  A
N1712      O1716   1.261       .  A
N1712      O1715   1.262       .  A
C1717      C1718   1.403       .  A
C1717      C1722   1.396       .  A
C1717      H1724   1.083       .  S
C1719      C1720   1.396       .  A
C1719      N1726   1.439       .  S
C1720      H1725   1.083       .  S
C1721      C1722   1.412       .  A
C1722      N1723   1.432       .  S
N1723      O1727   1.262       .  A
N1723      O1728   1.262       .  A
N1726      O1730   1.262       .  A
N1726      O1729   1.263       .  A
C1731      C1732   1.402       .  A
C1731      C1736   1.398       .  A
C1731      H1738   1.084       .  S
C1733      C1734   1.412   1_556  A
C1733      N1740   1.440       .  S
C1736      N1737   1.434   1_556  S
N1737      O1741   1.262       .  A
N1740      O1744   1.261       .  A
N1740      O1743   1.263       .  A
C1745      C1746   1.401       .  A
C1745      C1750   1.399       .  A
C1745      H1752   1.084       .  S
C1746      C1747   1.413       .  A
C1747      C1748   1.399       .  A
C1747      N1754   1.429       .  S
C1748      C1749   1.401   1_655  A
C1748      H1753   1.084   1_655  S
C1749      C1750   1.413   1_455  A
C1750      N1751   1.429       .  S
N1751      O1755   1.262   1_655  A
N1751      O1756   1.262       .  A
N1754      O1758   1.262       .  A
N1754      O1757   1.262       .  A
C1759      C1764   1.396       .  A
C1759      H1766   1.084       .  S
C1760      C1761   1.411       .  A
C1761      C1762   1.396       .  A
C1761      N1768   1.429       .  S
C1762      C1763   1.404       .  A
C1762      H1767   1.084       .  S
C1764      N1765   1.429       .  S
N1765      O1769   1.262       .  A
N1765      O1770   1.262       .  A
N1768      O1772   1.262       .  A
N1768      O1771   1.262   1_565  A
C1773      C1774   1.396       .  A
C1773      C1778   1.389       .  A
C1773      H1780   1.084       .  S
C1774      C1775   1.404       .  A
C1775      C1776   1.391       .  A
C1775      N1782   1.425       .  S
C1776      C1777   1.395       .  A
C1776      H1781   1.083       .  S
C1777      C1778   1.406       .  A
C1778      N1779   1.427       .  S
N1779      O1783   1.261       .  A
N1779      O1784   1.261       .  A
N1782      O1786   1.260       .  A
N1782      O1785   1.261       .  A
C1787      C1788   1.365       .  A
C1787      C1792   1.334       .  A
C1787      H1794   1.091       .  S
C1788      C1789   1.406       .  A
C1789      C1790   1.401       .  A
C1789      N1796   1.427       .  S
C1790      C1791   1.399       .  A
C1790      H1795   1.083       .  S
C1791      C1792   1.452       .  A
C1792      N1793   1.448       .  S
N1793      O1797   1.260       .  A
N1793      O1798   1.259       .  A
N1796      O1800   1.262       .  A
N1796      O1799   1.262       .  A
C1801      C1802   1.397       .  A
C1801      C1806   1.392       .  A
C1801      H1808   1.084       .  S
C1802      C1803   1.424       .  A
C1803      C1804   1.411       .  A
C1803      N1810   1.440       .  S
C1806      N1807   1.429       .  S
N1807      O1811   1.261   1_556  A
N1810      O1814   1.262       .  A
N1810      O1813   1.263       .  A
C1815      C1816   1.405       .  A
C1815      C1820   1.389       .  A
C1815      H1822   1.083       .  S
C1816      C1817   1.411       .  A
C1817      C1818   1.394       .  A
C1817      N1824   1.433       .  S
C1818      C1819   1.401       .  A
C1818      H1823   1.079       .  S
C1819      C1820   1.406       .  A
C1820      N1821   1.430       .  S
N1821      O1825   1.262       .  A
N1821      O1826   1.262       .  A
N1824      O1828   1.263       .  A
N1824      O1827   1.262       .  A
C1829      C1834   1.394       .  A
C1829      H1836   1.084       .  S
C1830      C1831   1.414       .  A
C1831      C1832   1.397       .  A
C1831      N1838   1.433       .  S
C1832      C1833   1.401       .  A
C1832      H1837   1.083       .  S
C1834      N1835   1.431       .  S
N1835      O1839   1.261       .  A
N1835      O1840   1.262       .  A
N1838      O1842   1.262       .  A
N1838      O1841   1.262       .  A
C1843      C1848   1.423       .  A
C1843      H1850   1.082       .  S
C1844      C1845   1.416       .  A
C1845      C1846   1.394       .  A
C1845      N1852   1.432       .  S
C1846      C1847   1.403       .  A
C1846      H1851   1.084       .  S
C1848      N1849   1.440       .  S
N1849      O1853   1.263       .  A
N1849      O1854   1.262       .  A
N1852      O1856   1.261       .  A
N1852      O1855   1.263       .  A
