geometry optimzed in LAMMPS
_audit_creation_date              2020-11-30 
_audit_creation_method            'lammps2cif' 
_symmetry_space_group_name_H-M    'P1' 
_symmetry_Int_Tables_number       1 
_symmetry_cell_setting            triclinic 
loop_ 
_symmetry_equiv_pos_as_xyz 
  x,y,z 
_cell_length_a                    52.79308272870727 
_cell_length_b                    52.56596258893431 
_cell_length_c                    30.642229423452182 
_cell_angle_alpha                 89.93804248912555 
_cell_angle_beta                  89.84230876626899 
_cell_angle_gamma                 122.61381818181965 
loop_ 
_atom_site_label 
_atom_site_type_symbol 
_atom_site_fract_x 
_atom_site_fract_y 
_atom_site_fract_z 
_atom_site_charge 
N1          N  0.21748190  0.37395024  0.56664886    -0.25690
N2          N  0.19519241  0.34905458  0.54842464    -0.33540
C3          C  0.19133720  0.32485644  0.56988653     0.02650
C4          C  0.21222889  0.33483320  0.60297144     0.08680
C5          C  0.22842393  0.36611476  0.60000610    -0.04420
H6          H  0.17467458  0.30164308  0.56168913     0.09350
H7          H  0.24667633  0.38217851  0.62065476     0.10550
Cu8        Cu  0.17065605  0.34792749  0.49496725     0.44170
Cu9        Cu  0.23256973  0.41800905  0.54716235     0.41990
Cu10       Cu  0.19154567  0.42182904  0.45877111     0.43880
N11         N  0.15059601  0.35484022  0.44220128    -0.33070
N12         N  0.15844361  0.38224316  0.42979135    -0.27330
C13         C  0.14161158  0.38011378  0.39567497    -0.03430
C14         C  0.12228533  0.35000443  0.38576742     0.08790
C15         C  0.12845488  0.33439692  0.41594102     0.02580
H16         H  0.14322196  0.39920169  0.37935163     0.10240
H17         H  0.11747451  0.31017772  0.41910297     0.09310
N18         N  0.22600267  0.45996054  0.48891722    -0.34520
N19         N  0.24163869  0.45895032  0.52172165    -0.26700
C20         C  0.26250452  0.48745395  0.53381992    -0.01940
C21         C  0.25959692  0.50702605  0.50718214     0.06670
C22         C  0.23633803  0.48891468  0.47915771     0.04760
H23         H  0.27851427  0.49342971  0.55991706     0.09870
H24         H  0.22758038  0.49618242  0.45347691     0.08700
N25         N  0.35911683  0.24305584  0.92389393    -0.25690
N26         N  0.33220729  0.22131156  0.93774637    -0.33540
C27         C  0.31103570  0.22125577  0.91316259     0.02650
C28         C  0.32551713  0.24416859  0.88256173     0.08680
C29         C  0.35581781  0.25748185  0.89045349    -0.04420
H30         H  0.28704836  0.20613616  0.91791362     0.09350
H31         H  0.37423001  0.27650258  0.87324269     0.10550
Cu32       Cu  0.32592875  0.19374043  0.99033115     0.44170
Cu33       Cu  0.39977725  0.25307656  0.94980995     0.41990
Cu34       Cu  0.39645348  0.20825776  0.03846491     0.43880
N35         N  0.32797337  0.17108145  0.04411935    -0.33070
N36         N  0.35335843  0.17627362  0.06109772    -0.27330
C37         C  0.34677805  0.15784160  0.09548257    -0.03430
C38         C  0.31575644  0.14016871  0.10049619     0.08790
C39         C  0.30461591  0.14926154  0.06739594     0.02580
H40         H  0.36357204  0.15768214  0.11536463     0.10240
H41         H  0.28122646  0.14057909  0.06058164     0.09310
N42         N  0.43712511  0.24223912  0.01129659    -0.34520
N43         N  0.43822401  0.25902045  0.97830111    -0.26700
C44         C  0.46716973  0.27907837  0.96760549    -0.01940
C45         C  0.48511552  0.27467230  0.99524453     0.06670
C46         C  0.46542493  0.25117513  0.02256649     0.04760
H47         H  0.47455497  0.29559312  0.94164008     0.09870
H48         H  0.47119797  0.24133463  0.04866531     0.08700
N49         N  0.22747090  0.38208248  0.93323963    -0.25690
N50         N  0.20504868  0.35516430  0.94634775    -0.33540
C51         C  0.20622710  0.33398062  0.92301652     0.02650
C52         C  0.23068206  0.34863694  0.89459957     0.08680
C53         C  0.24344124  0.37886897  0.90225509    -0.04420
H54         H  0.19076756  0.30987127  0.92685714     0.09350
H55         H  0.26293217  0.39743684  0.88606044     0.10550
Cu56       Cu  0.17481438  0.34930222  0.99644998     0.44170
Cu57       Cu  0.23739716  0.42351057  0.95448185     0.41990
Cu58       Cu  0.19333598  0.42365617  0.03582463     0.43880
N59         N  0.15181649  0.35570482  0.04734974    -0.33070
N60         N  0.15937048  0.38297826  0.06008471    -0.27330
C61         C  0.14113840  0.38071129  0.09229027    -0.03430
C62         C  0.12091273  0.35071565  0.10099547     0.08790
C63         C  0.12815925  0.33516152  0.07198486     0.02580
H64         H  0.14255294  0.39978268  0.10827843     0.10240
H65         H  0.11702977  0.31094090  0.06877013     0.09310
N66         N  0.22759483  0.46340714  0.00960097    -0.34520
N67         N  0.24461201  0.46341894  0.97807593    -0.26700
C68         C  0.26528043  0.49205738  0.96668629    -0.01940
C69         C  0.26077511  0.51071960  0.99261821     0.06670
C70         C  0.23678869  0.49200369  0.01951081     0.04760
H71         H  0.28226535  0.49869678  0.94169371     0.09870
H72         H  0.22683984  0.49857582  0.04439633     0.08700
N73         N  0.82282280  0.19579237  0.57015056    -0.25690
N74         N  0.84496246  0.19501228  0.55130885    -0.33540
C75         C  0.84879737  0.17478065  0.57193207     0.02650
C76         C  0.82792703  0.16184211  0.60512905     0.08680
C77         C  0.81175130  0.17567282  0.60320311    -0.04420
H78         H  0.86543799  0.16967502  0.56306670     0.09350
H79         H  0.79360767  0.17178569  0.62448657     0.10550
Cu80       Cu  0.86925027  0.22082881  0.49826072     0.44170
Cu81       Cu  0.80957063  0.22499586  0.55056153     0.41990
Cu82       Cu  0.85396890  0.27505503  0.46038349     0.43880
N83         N  0.89173898  0.24929826  0.44647425    -0.33070
N84         N  0.88656625  0.26991536  0.43288610    -0.27330
C85         C  0.90509375  0.28528296  0.39935955    -0.03430
C86         C  0.92252306  0.27348906  0.39129982     0.08790
C87         C  0.91351129  0.25070733  0.42183655     0.02580
H88         H  0.90553409  0.30338722  0.38180640     0.10240
H89         H  0.92220086  0.23637240  0.42627742     0.09310
N90         N  0.81976943  0.27585756  0.49146530    -0.34520
N91         N  0.80339438  0.25791427  0.52412396    -0.26700
C92         C  0.78339464  0.26502367  0.53635308    -0.01940
C93         C  0.78765122  0.28841141  0.51000727     0.06670
C94         C  0.81073021  0.29469110  0.48201731     0.04760
H95         H  0.76713379  0.25408359  0.56245811     0.09870
H96         H  0.82038291  0.31175858  0.45667764     0.08700
N97         N  0.87745869  0.24949882  0.06967535    -0.25690
N98         N  0.87861480  0.22752422  0.05082229    -0.33540
C99         C  0.89875873  0.22376578  0.07158383     0.02650
C100        C  0.91123365  0.24452416  0.10489277     0.08680
C101        C  0.89721244  0.26053096  0.10286033    -0.04420
H102        H  0.90414005  0.20728407  0.06271850     0.09350
H103        H  0.90074701  0.27856471  0.12413507     0.10550
Cu104      Cu  0.85331884  0.20342132  0.99759383     0.44170
Cu105      Cu  0.84833667  0.26269762  0.04990016     0.41990
Cu106      Cu  0.79889006  0.21845923  0.95994983     0.43880
N107        N  0.82508162  0.18095136  0.94593462    -0.33070
N108        N  0.80440953  0.18596678  0.93251173    -0.27330
C109        C  0.78921477  0.16736148  0.89914318    -0.03430
C110        C  0.80117460  0.15005724  0.89100652     0.08790
C111        C  0.82387357  0.15922255  0.92133411     0.02580
H112        H  0.77109270  0.16676833  0.88176309     0.10240
H113        H  0.83826320  0.15062695  0.92569691     0.09310
N114        N  0.79798190  0.25278629  0.99082129    -0.34520
N115        N  0.81574989  0.26911745  0.02340483    -0.26700
C116        C  0.80878135  0.28930564  0.03544653    -0.01940
C117        C  0.78566501  0.28523596  0.00906430     0.06670
C118        C  0.77939649  0.26204983  0.98124185     0.04760
H119        H  0.81965833  0.30559540  0.06142565     0.09870
H120        H  0.76253126  0.25250649  0.95589049     0.08700
N121        N  0.73256184  0.44337545  0.99381323    -0.25690
N122        N  0.70730208  0.44299331  0.99294649    -0.33540
C123        C  0.71421854  0.47169524  0.99211591     0.02650
C124        C  0.74519257  0.49074621  0.99243739     0.08680
C125        C  0.75613864  0.47215970  0.99356142    -0.04420
H126        H  0.69793274  0.47816352  0.99146466     0.09350
H127        H  0.77947485  0.47897582  0.99431405     0.10550
Cu128      Cu  0.66470351  0.40318197  0.99317739     0.44170
Cu129      Cu  0.73410082  0.40495651  0.99580425     0.41990
Cu130      Cu  0.66298025  0.33294485  0.99616939     0.43880
N131        N  0.62513084  0.36031896  0.99374689    -0.33070
N132        N  0.62454893  0.33482061  0.99470340    -0.27330
C133        C  0.59570517  0.31133449  0.99516667    -0.03430
C134        C  0.57734456  0.32259478  0.99449304     0.08790
C135        C  0.59663858  0.35365971  0.99358258     0.02580
H136        H  0.58866659  0.28782826  0.99615399     0.10240
H137        H  0.59046341  0.37022186  0.99302727     0.09310
N138        N  0.70464829  0.33747416  0.99931814    -0.34520
N139        N  0.73053090  0.36390174  0.99918609    -0.26700
C140        C  0.75325436  0.35943464  0.00227148    -0.01940
C141        C  0.74106265  0.32878320  0.00453728     0.06670
C142        C  0.71027432  0.31541127  0.00249634     0.04760
H143        H  0.77685058  0.37721921  0.00300352     0.09870
H144        H  0.69323551  0.29149986  0.00345465     0.08700
N145        N  0.82442960  0.70815938  0.06618219    -0.25690
N146        N  0.84662843  0.73530904  0.05370361    -0.33540
C147        C  0.84531439  0.75617702  0.07732821     0.02650
C148        C  0.82099771  0.74124186  0.10570191     0.08680
C149        C  0.80833907  0.71096295  0.09758517    -0.04420
H150        H  0.86065986  0.78031148  0.07361611     0.09350
H151        H  0.78886278  0.69222074  0.11353400     0.10550
Cu152      Cu  0.87690761  0.74238625  0.00418508     0.44170
Cu153      Cu  0.81614394  0.66791939  0.04129136     0.41990
Cu154      Cu  0.86332481  0.67200682  0.95606865     0.43880
N155        N  0.90190506  0.74067305  0.95286846    -0.33070
N156        N  0.89675577  0.71513839  0.93602237    -0.27330
C157        C  0.91653100  0.72153127  0.90368402    -0.03430
C158        C  0.93518421  0.75262707  0.89975645     0.08790
C159        C  0.92518482  0.76403581  0.93139213     0.02580
H160        H  0.91694437  0.70453601  0.88444730     0.10240
H161        H  0.93422451  0.78758913  0.93837708     0.09310
N162        N  0.82837973  0.63113970  0.98081297    -0.34520
N163        N  0.81087509  0.62982759  0.01278047    -0.26700
C164        C  0.79014200  0.60076196  0.02201743    -0.01940
C165        C  0.79487066  0.58299229  0.99443493     0.06670
C166        C  0.81924646  0.60282308  0.96868686     0.04760
H167        H  0.77285113  0.59320128  0.04676434     0.09870
H168        H  0.82946880  0.59716047  0.94300443     0.08700
O169        O  0.05453952  0.32219260  0.29090744    -0.71340
O170        O  0.99182584  0.30495244  0.20430648    -0.72320
O171        O  0.99325159  0.30223660  0.29558729    -0.60940
O172        O  0.05306802  0.32361482  0.19898667    -0.69350
O173        O  0.04070653  0.27608660  0.19567915    -0.68900
O174        O  0.98141416  0.25481802  0.29256723    -0.60160
O175        O  0.97871930  0.25718061  0.19996641    -0.72670
O176        O  0.04325359  0.27501656  0.28912363    -0.71450
Cu177      Cu  0.02366698  0.31484969  0.24747905     1.04560
Cu178      Cu  0.01056929  0.26402370  0.24413152     1.04330
C179        C  0.05887878  0.30187650  0.30435169     0.94860
C180        C  0.97502717  0.27850528  0.18885451     0.94000
C181        C  0.97785861  0.27492215  0.30917947     0.86140
C182        C  0.05641185  0.30331633  0.18212063     0.92410
N183        N  0.17931442  0.83920711  0.57410465    -0.25690
N184        N  0.17370706  0.85929427  0.55914788    -0.33540
C185        C  0.15156076  0.85773747  0.58334904     0.02650
C186        C  0.14290150  0.83542241  0.61460565     0.08680
C187        C  0.16084792  0.82418836  0.60766863    -0.04420
H188        H  0.14184551  0.87103542  0.57754634     0.09350
H189        H  0.16023996  0.80602931  0.62533110     0.10550
Cu190      Cu  0.19502582  0.88603815  0.50466749     0.44170
Cu191      Cu  0.21066594  0.83137278  0.54880432     0.41990
Cu192      Cu  0.25194929  0.87431811  0.45719785     0.43880
N193        N  0.21998091  0.90783304  0.44905549    -0.33070
N194        N  0.24076263  0.90369324  0.43287973    -0.27330
C195        C  0.25342236  0.92152231  0.39786266    -0.03430
C196        C  0.23992628  0.93748720  0.39128292     0.08790
C197        C  0.21877389  0.92837151  0.42430701     0.02580
H198        H  0.27138617  0.92291647  0.37871131     0.10240
H199        H  0.20415896  0.93650194  0.43059503     0.09310
N200        N  0.25803892  0.84208104  0.48462063    -0.34520
N201        N  0.24244375  0.82598848  0.51895680    -0.26700
C202        C  0.25036503  0.80632374  0.52903174    -0.01940
C203        C  0.27195370  0.81035618  0.49946172     0.06670
C204        C  0.27641085  0.83312915  0.47170766     0.04760
H205        H  0.24086106  0.79014123  0.55552900     0.09870
H206        H  0.29152713  0.84225505  0.44399658     0.08700
N207        N  0.31882016  0.64630927  0.49875842    -0.25690
N208        N  0.34433127  0.64717469  0.49736471    -0.33540
C209        C  0.33819129  0.61882025  0.49983624     0.02650
C210        C  0.30742434  0.59928924  0.50300331     0.08680
C211        C  0.29574701  0.61732137  0.50215280    -0.04420
H212        H  0.35491682  0.61292756  0.49946640     0.09350
H213        H  0.27228283  0.60998161  0.50397330     0.10550
Cu214      Cu  0.38648287  0.68677062  0.49290070     0.44170
Cu215      Cu  0.31675965  0.68471538  0.49665545     0.41990
Cu216      Cu  0.38882873  0.75648300  0.49167937     0.43880
N217        N  0.42607168  0.72902810  0.49007315    -0.33070
N218        N  0.42685753  0.75460133  0.48975629    -0.27330
C219        C  0.45564851  0.77795827  0.48839506    -0.03430
C220        C  0.47367556  0.76639815  0.48779903     0.08790
C221        C  0.45440186  0.73541204  0.48891603     0.02580
H222        H  0.46283640  0.80151600  0.48813376     0.10240
H223        H  0.46044915  0.71875069  0.48918594     0.09310
N224        N  0.34782363  0.75263069  0.49365024    -0.34520
N225        N  0.32152296  0.72664108  0.49535266    -0.26700
C226        C  0.29952303  0.73230880  0.49640769    -0.01940
C227        C  0.31280421  0.76321710  0.49528312     0.06670
C228        C  0.34332101  0.77546669  0.49357919     0.04760
H229        H  0.27572464  0.71521980  0.49803869     0.09870
H230        H  0.36098868  0.79917821  0.49249812     0.08700
N231        N  0.69382477  0.84869912  0.42819563    -0.25690
N232        N  0.72058730  0.87055509  0.44221984    -0.33540
C233        C  0.74178509  0.86963665  0.41860529     0.02650
C234        C  0.72729695  0.84601066  0.38888435     0.08680
C235        C  0.69715198  0.83344259  0.39616447    -0.04420
H236        H  0.76577401  0.88479104  0.42299647     0.09350
H237        H  0.67871927  0.81448815  0.37911791     0.10550
Cu238      Cu  0.72616484  0.89993323  0.49344933     0.44170
Cu239      Cu  0.65243246  0.83849088  0.44974041     0.41990
Cu240      Cu  0.65184430  0.88193037  0.53180826     0.43880
N241        N  0.71956142  0.92259247  0.54465868    -0.33070
N242        N  0.69238834  0.91535661  0.55696785    -0.27330
C243        C  0.69462840  0.93329826  0.58962977    -0.03430
C244        C  0.72448000  0.95296813  0.59908170     0.08790
C245        C  0.73996941  0.94570913  0.56999692     0.02580
H246        H  0.67563729  0.93201367  0.60552065     0.10240
H247        H  0.76407378  0.95642224  0.56728786     0.09310
N248        N  0.61229411  0.84777298  0.50514945    -0.34520
N249        N  0.61248053  0.83097527  0.47343109    -0.26700
C250        C  0.58402280  0.81034009  0.46184446    -0.01940
C251        C  0.56522287  0.81460102  0.48782552     0.06670
C252        C  0.58372631  0.83844342  0.51496405     0.04760
H253        H  0.57758857  0.79354971  0.43663922     0.09870
H254        H  0.57701631  0.84820756  0.53995226     0.08700
N255        N  0.36496593  0.25122124  0.56597965    -0.25690
N256        N  0.33820896  0.22953077  0.55165483    -0.33540
C257        C  0.31697944  0.23043821  0.57516606     0.02650
C258        C  0.33136396  0.25386924  0.60520490     0.08680
C259        C  0.36155480  0.26634277  0.59820349    -0.04420
H260        H  0.29300803  0.21535208  0.57051820     0.09350
H261        H  0.37994233  0.28516063  0.61551801     0.10550
Cu262      Cu  0.33235329  0.20012608  0.50028346     0.44170
Cu263      Cu  0.40639615  0.26139705  0.54408794     0.41990
Cu264      Cu  0.40585050  0.21804260  0.46020919     0.43880
N265        N  0.33823986  0.17666774  0.44953084    -0.33070
N266        N  0.36527575  0.18377319  0.43675446    -0.27330
C267        C  0.36272888  0.16482165  0.40547157    -0.03430
C268        C  0.33277956  0.14470297  0.39728523     0.08790
C269        C  0.31757401  0.15271940  0.42569656     0.02580
H270        H  0.38155550  0.16566229  0.38977620     0.10240
H271        H  0.29348570  0.14168412  0.42938312     0.09310
N272        N  0.44559441  0.25206662  0.48622421    -0.34520
N273        N  0.44597990  0.26874016  0.51861675    -0.26700
C274        C  0.47467094  0.28905526  0.52963956    -0.01940
C275        C  0.49294437  0.28466536  0.50258447     0.06670
C276        C  0.47393003  0.26112251  0.47542405     0.04760
H277        H  0.48161654  0.30566239  0.55525375     0.09870
H278        H  0.48013137  0.25128587  0.44984880     0.08700
N279        N  0.63105757  0.34264044  0.49739219    -0.25690
N280        N  0.63206747  0.36830974  0.49598368    -0.33540
C281        C  0.60386688  0.36224242  0.49709022     0.02650
C282        C  0.58439303  0.33133753  0.49933442     0.08680
C283        C  0.60218262  0.31948430  0.49944243    -0.04420
H284        H  0.59805526  0.37907900  0.49643385     0.09350
H285        H  0.59478798  0.29589110  0.50108528     0.10550
Cu286      Cu  0.67175742  0.41026906  0.49301768     0.44170
Cu287      Cu  0.66909693  0.34068436  0.49744400     0.41990
Cu288      Cu  0.74162808  0.41259899  0.49480568     0.43880
N289        N  0.71378936  0.44984616  0.48988967    -0.33070
N290        N  0.73943816  0.45096878  0.49049281    -0.27330
C291        C  0.76238688  0.48008737  0.48799147    -0.03430
C292        C  0.75041745  0.49784839  0.48561343     0.08790
C293        C  0.71966458  0.47806707  0.48699313     0.02580
H294        H  0.78595061  0.48771019  0.48806244     0.10240
H295        H  0.70275652  0.48370548  0.48611789     0.09310
N296        N  0.73653050  0.37049078  0.49941868    -0.34520
N297        N  0.71013211  0.34455556  0.50014932    -0.26700
C298        C  0.71445205  0.32167523  0.50377341    -0.01940
C299        C  0.74493735  0.33378439  0.50550165     0.06670
C300        C  0.75839580  0.36469745  0.50257086     0.04760
H301        H  0.69666669  0.29801756  0.50523107     0.09870
H302        H  0.78223881  0.38171252  0.50283307     0.08700
N303        N  0.83824059  0.72393750  0.43063466    -0.25690
N304        N  0.86026798  0.74875499  0.44943914    -0.33540
C305        C  0.86410833  0.77303476  0.42811793     0.02650
C306        C  0.84345648  0.76314147  0.39461506     0.08680
C307        C  0.82748438  0.73187689  0.39718450    -0.04420
H308        H  0.88062640  0.79623099  0.43660924     0.09350
H309        H  0.80955471  0.71585992  0.37606100     0.10550
Cu310      Cu  0.88460711  0.74948577  0.50327357     0.44170
Cu311      Cu  0.82301297  0.67961139  0.44872082     0.41990
Cu312      Cu  0.86177667  0.67449312  0.53764034     0.43880
N313        N  0.90442843  0.74107314  0.55518185    -0.33070
N314        N  0.89571359  0.71325006  0.56662331    -0.27330
C315        C  0.91298827  0.71417632  0.59923071    -0.03430
C316        C  0.93355969  0.74392136  0.60931568     0.08790
C317        C  0.92762859  0.76062707  0.58083053     0.02580
H318        H  0.91098440  0.69448819  0.61411397     0.10240
H319        H  0.93973285  0.78495980  0.57799999     0.09310
N320        N  0.82830152  0.63673378  0.50613471    -0.34520
N321        N  0.81344241  0.63814814  0.47260868    -0.26700
C322        C  0.79342243  0.60981918  0.45882294    -0.01940
C323        C  0.79613467  0.58998801  0.48518581     0.06670
C324        C  0.81835453  0.60774364  0.51476568     0.04760
H325        H  0.77824086  0.60414593  0.43166269     0.09870
H326        H  0.82682149  0.60022844  0.54053015     0.08700
N327        N  0.24307477  0.90120745  0.07591907    -0.25690
N328        N  0.22296864  0.90682976  0.06170427    -0.33540
C329        C  0.22488871  0.92922228  0.08563056     0.02650
C330        C  0.24742488  0.93812214  0.11630032     0.08680
C331        C  0.25846734  0.91992050  0.10908140    -0.04420
H332        H  0.21112834  0.93846338  0.08052169     0.09350
H333        H  0.27637389  0.92022060  0.12665644     0.10550
Cu334      Cu  0.19462560  0.88422723  0.00962473     0.44170
Cu335      Cu  0.24868533  0.86858155  0.04928590     0.41990
Cu336      Cu  0.20153494  0.82575249  0.95785805     0.43880
N337        N  0.16948987  0.85915287  0.95631884    -0.33070
N338        N  0.17169108  0.83769651  0.93780777    -0.27330
C339        C  0.15229973  0.82600074  0.90428801    -0.03430
C340        C  0.13723849  0.84090497  0.90155695     0.08790
C341        C  0.14879881  0.86178796  0.93492785     0.02580
H342        H  0.14979518  0.80829140  0.88323502     0.10240
H343        H  0.14260667  0.87775774  0.94312476     0.09310
N344        N  0.23437186  0.81987291  0.98391334    -0.34520
N345        N  0.25139064  0.83564437  0.01738074    -0.26700
C346        C  0.27075175  0.82722452  0.02616974    -0.01940
C347        C  0.26569560  0.80518616  0.99683359     0.06670
C348        C  0.24254290  0.80090552  0.97044323     0.04760
H349        H  0.28743528  0.83669894  0.05177016     0.09870
H350        H  0.23256884  0.78543535  0.94333745     0.08700
N351        N  0.42892921  0.75774119  0.99825239    -0.25690
N352        N  0.42781187  0.73198095  0.99748401    -0.33540
C353        C  0.45596652  0.73789268  0.99832847     0.02650
C354        C  0.47567185  0.76877959  0.99973287     0.08680
C355        C  0.45794572  0.78078189  0.99960667    -0.04420
H356        H  0.46160523  0.72092367  0.99797663     0.09350
H357        H  0.46551340  0.80443305  0.00044550     0.10550
Cu358      Cu  0.38831171  0.68977043  0.99562493     0.44170
Cu359      Cu  0.39078976  0.76012125  0.99754094     0.41990
Cu360      Cu  0.31925310  0.68774855  0.99654205     0.43880
N361        N  0.34625426  0.65015619  0.99462778    -0.33070
N362        N  0.32086399  0.64949109  0.99512952    -0.27330
C363        C  0.29752095  0.62063906  0.99435327    -0.03430
C364        C  0.30893546  0.60247555  0.99329734     0.08790
C365        C  0.33978948  0.62168490  0.99352322     0.02580
H366        H  0.27409045  0.61351832  0.99455929     0.10240
H367        H  0.35630521  0.61551370  0.99299750     0.09310
N368        N  0.32311104  0.72887114  0.99621870    -0.34520
N369        N  0.34896969  0.75533111  0.99646619    -0.26700
C370        C  0.34321906  0.77736298  0.99563291    -0.01940
C371        C  0.31240365  0.76389744  0.99474110     0.06670
C372        C  0.30031026  0.73327046  0.99521834     0.04760
H373        H  0.36018035  0.80130361  0.99562686     0.09870
H374        H  0.27672107  0.71544691  0.99478580     0.08700
N375        N  0.69636719  0.84948183  0.06448702    -0.25690
N376        N  0.72299014  0.87152429  0.04990046    -0.33540
C377        C  0.74458703  0.87226231  0.07456790     0.02650
C378        C  0.73065233  0.84954177  0.10573481     0.08680
C379        C  0.70031479  0.83569535  0.09812792    -0.04420
H380        H  0.76850061  0.88776428  0.06964974     0.09350
H381        H  0.68221087  0.81673839  0.11586831     0.10550
Cu382      Cu  0.72855712  0.89896819  0.99636418     0.44170
Cu383      Cu  0.65435915  0.83720722  0.04127523     0.41990
Cu384      Cu  0.65486701  0.87931009  0.95519287     0.43880
N385        N  0.72271474  0.92001495  0.94270045    -0.33070
N386        N  0.69567825  0.91227742  0.92919932    -0.27330
C387        C  0.69840134  0.92963347  0.89532972    -0.03430
C388        C  0.72843710  0.94932836  0.88638971     0.08790
C389        C  0.74351962  0.94278459  0.91703332     0.02580
H390        H  0.67964659  0.92819257  0.87858715     0.10240
H391        H  0.76759160  0.95402226  0.92097136     0.09310
N392        N  0.61492063  0.84581723  0.98267141    -0.34520
N393        N  0.61447406  0.82943992  0.01564194    -0.26700
C394        C  0.58570562  0.80958014  0.02749332    -0.01940
C395        C  0.56741721  0.81393122  0.00041412     0.06670
C396        C  0.58658801  0.83701080  0.97237626     0.04760
H397        H  0.57870137  0.79341738  0.05387976     0.09870
H398        H  0.58047657  0.84678668  0.94661369     0.08700
O399        O  0.75137716  0.01902026  0.69985045    -0.71340
O400        O  0.77276469  0.07877190  0.79642581    -0.72320
O401        O  0.76883908  0.08017534  0.70531429    -0.60940
O402        O  0.75429737  0.01756365  0.79185892    -0.69350
O403        O  0.80154881  0.02988057  0.78809596    -0.68900
O404        O  0.81660479  0.09418978  0.69927437    -0.60160
O405        O  0.82024249  0.09161670  0.79165634    -0.72670
O406        O  0.79891324  0.03230408  0.69461587    -0.71450
Cu407      Cu  0.76020757  0.04833054  0.74847970     1.04560
Cu408      Cu  0.81106920  0.06248074  0.74313405     1.04330
C409        C  0.77167611  0.01622858  0.68187121     0.94860
C410        C  0.80008751  0.09470652  0.80907516     0.94000
C411        C  0.79495675  0.09743045  0.68906177     0.86140
C412        C  0.77508276  0.01377345  0.80438857     0.92410
O413        O  0.78312494  0.77405455  0.28908908    -0.71340
O414        O  0.76250465  0.81433669  0.19967439    -0.72320
O415        O  0.78737774  0.77842835  0.19757532    -0.60940
O416        O  0.75953171  0.81117313  0.29177896    -0.69350
O417        O  0.80547042  0.85227240  0.29621257    -0.68900
O418        O  0.83319230  0.81978617  0.20188456    -0.60160
O419        O  0.80803125  0.85604804  0.20260533    -0.72670
O420        O  0.82931899  0.81468127  0.29496880    -0.71450
Cu421      Cu  0.77159719  0.79317428  0.24439891     1.04560
Cu422      Cu  0.82069075  0.83721846  0.24910656     1.04330
C423        C  0.80918193  0.78752175  0.30606836     0.94860
C424        C  0.78148881  0.84114150  0.18651994     0.94000
C425        C  0.81484110  0.79404923  0.18502783     0.86140
C426        C  0.77814178  0.83685708  0.30897480     0.92410
O427        O  0.23601777  0.00764878  0.20343335    -0.71340
O428        O  0.25975625  0.07010094  0.29627960    -0.72320
O429        O  0.26763101  0.07186720  0.20338368    -0.60940
O430        O  0.22947359  0.00590973  0.29604982    -0.69350
O431        O  0.27331260  0.00984083  0.30210308    -0.68900
O432        O  0.31047937  0.07408587  0.21268976    -0.60160
O433        O  0.30315040  0.07327783  0.30400641    -0.72670
O434        O  0.27922928  0.01035417  0.21089258    -0.71450
Cu435      Cu  0.24663326  0.03878115  0.24946434     1.04560
Cu436      Cu  0.29299502  0.04202598  0.25770314     1.04330
C437        C  0.25357343  0.99901352  0.19264077     0.94860
C438        C  0.28518709  0.08152043  0.31495001     0.94000
C439        C  0.29536242  0.08318543  0.19368087     0.86140
C440        C  0.24585328  0.99748368  0.31333678     0.92410
O441        O  0.07150812  0.82793403  0.80412643    -0.71340
O442        O  0.01005330  0.81324161  0.71241295    -0.72320
O443        O  0.00767716  0.80077126  0.80386983    -0.60940
O444        O  0.07358523  0.84037548  0.71292960    -0.69350
O445        O  0.06707879  0.79573621  0.69950969    -0.68900
O446        O  0.00189877  0.75665763  0.78858980    -0.60160
O447        O  0.00434462  0.76899006  0.69886937    -0.72670
O448        O  0.06484848  0.78342274  0.78900905    -0.71450
Cu449      Cu  0.04094590  0.82223671  0.75893280     1.04560
Cu450      Cu  0.03430585  0.77474985  0.74349348     1.04330
C451        C  0.07794102  0.80797000  0.81062963     0.94860
C452        C  0.99745727  0.78842946  0.69123403     0.94000
C453        C  0.99435736  0.77228796  0.81024272     0.86140
C454        C  0.08077559  0.82407943  0.69218147     0.92410
O455        O  0.22635424  0.28204839  0.69986856    -0.71340
O456        O  0.24780489  0.23896191  0.78877291    -0.72320
O457        O  0.22086220  0.27353266  0.79254116    -0.60940
O458        O  0.25163092  0.24577984  0.69577330    -0.69350
O459        O  0.29710693  0.28726870  0.70253735    -0.68900
O460        O  0.26610654  0.31531349  0.79956564    -0.60160
O461        O  0.29278754  0.28121840  0.79407654    -0.72670
O462        O  0.27201952  0.32308158  0.70830165    -0.71450
Cu463      Cu  0.23499014  0.25855739  0.74393023     1.04560
Cu464      Cu  0.28351193  0.30308990  0.75134098     1.04330
C465        C  0.24623189  0.30966571  0.69054121     0.94860
C466        C  0.27420234  0.25389044  0.80532954     0.94000
C467        C  0.23849695  0.29870718  0.81132589     0.86140
C468        C  0.27913169  0.26191074  0.68398231     0.92410
C469        C  0.73934801  0.97275352  0.85229750    -0.14830
C470        C  0.76793641  0.99068608  0.83840073    -0.30000
H471        H  0.72196167  0.97491393  0.83729716     0.14190
H472        H  0.78567898  0.98854198  0.85196786     0.14770
C473        C  0.77215191  0.85443318  0.15229776    -0.14830
C474        C  0.74323241  0.83941589  0.13943114    -0.30000
H475        H  0.78861107  0.87618452  0.13805147     0.14190
H476        H  0.72702526  0.81813834  0.15518840     0.14770
C477        C  0.50800050  0.78491913  0.00082364    -0.11670
C478        C  0.53509326  0.79804411  0.00118132    -0.13230
C479        C  0.24353153  0.97570689  0.15871713    -0.14830
C480        C  0.25820576  0.96198386  0.14965678    -0.30000
H481        H  0.22288220  0.96911531  0.14165567     0.14190
H482        H  0.27827517  0.96782848  0.16785118     0.14770
C483        C  0.11415384  0.83649744  0.86984833    -0.14830
C484        C  0.10084239  0.81275852  0.84275870    -0.30000
H485        H  0.10767149  0.85291138  0.86935541     0.14190
H486        H  0.10665197  0.79586513  0.84424173     0.14770
C487        C  0.28187359  0.79039201  0.99430966    -0.11670
C488        C  0.29600602  0.77850589  0.99395801    -0.13230
C489        C  0.95744159  0.75361326  0.64189920    -0.14830
C490        C  0.97451149  0.78172853  0.65783770    -0.30000
H491        H  0.96035543  0.73598376  0.65435321     0.14190
H492        H  0.97108217  0.79938665  0.64731550     0.14770
C493        C  0.83958004  0.78217272  0.36309685    -0.14830
C494        C  0.81498291  0.77032402  0.33804420    -0.30000
H495        H  0.85667307  0.80615279  0.36127926     0.14190
H496        H  0.79744490  0.74660366  0.34156165     0.14770
C497        C  0.77963288  0.55752439  0.48292521    -0.11670
C498        C  0.76644768  0.53030164  0.48340413    -0.13230
C499        C  0.31912789  0.26481454  0.63845641    -0.14830
C500        C  0.28988349  0.25065405  0.64884466    -0.30000
H501        H  0.33529627  0.28513486  0.65605238     0.14190
H502        H  0.27358994  0.22991069  0.63227299     0.14770
C503        C  0.32174480  0.12004892  0.36524554    -0.14830
C504        C  0.29376148  0.10455641  0.34924338    -0.30000
H505        H  0.33824394  0.11559597  0.35261633     0.14190
H506        H  0.27733644  0.10957578  0.36020722     0.14770
C507        C  0.52515930  0.30121829  0.50233096    -0.11670
C508        C  0.55219811  0.31492670  0.50123304    -0.13230
C509        C  0.73500938  0.97610980  0.63350406    -0.14830
C510        C  0.76368005  0.99420933  0.64613389    -0.30000
H511        H  0.71768371  0.97779788  0.64987821     0.14190
H512        H  0.78129278  0.99261895  0.63061616     0.14770
C513        C  0.76820150  0.84908293  0.34381131    -0.14830
C514        C  0.73922357  0.83475570  0.35574402    -0.30000
H515        H  0.78472274  0.87032919  0.35904928     0.14190
H516        H  0.72285835  0.81389038  0.33942888     0.14770
C517        C  0.50591651  0.78322956  0.48722649    -0.11670
C518        C  0.53298780  0.79750158  0.48721993    -0.13230
C519        C  0.24908464  0.96074473  0.35751262    -0.14830
C520        C  0.23351035  0.97330654  0.34662151    -0.30000
H521        H  0.26990774  0.96760846  0.34042735     0.14190
H522        H  0.21195887  0.96578631  0.36179366     0.14770
C523        C  0.11832537  0.82330085  0.64666860    -0.14830
C524        C  0.10526860  0.83796384  0.65967783    -0.30000
H525        H  0.11132672  0.80155555  0.66110897     0.14190
H526        H  0.11320063  0.86048305  0.64751178     0.14770
C527        C  0.28619748  0.79363311  0.49745102    -0.11670
C528        C  0.29809070  0.77951171  0.49628157    -0.13230
C529        C  0.96031867  0.77011046  0.86855949    -0.14830
C530        C  0.96978155  0.75637530  0.84229972    -0.30140
H531        H  0.97125686  0.79449874  0.86745071     0.14190
H532        H  0.95919567  0.73208713  0.84418167     0.14770
C533        C  0.80978581  0.75367930  0.13800610    -0.14830
C534        C  0.82591822  0.78255074  0.15100825    -0.30000
H535        H  0.78797454  0.73814297  0.15279946     0.14190
H536        H  0.84829764  0.79785490  0.13779132     0.14770
C537        C  0.76264361  0.52325540  0.99231570    -0.11670
C538        C  0.77754047  0.55051455  0.99277371    -0.13230
C539        C  0.93461508  0.24820717  0.13536856    -0.14830
C540        C  0.95109805  0.27347606  0.15867153    -0.30000
H541        H  0.93908783  0.23034415  0.13734613     0.14190
H542        H  0.94746547  0.29182420  0.15489586     0.14770
C543        C  0.79147707  0.12694677  0.85688527    -0.14830
C544        C  0.80895740  0.11699786  0.84406679    -0.30000
H545        H  0.77010518  0.11886354  0.84088523     0.14190
H546        H  0.83107793  0.12638252  0.85827593     0.14770
C547        C  0.77074556  0.30140471  0.00976594    -0.11670
C548        C  0.75725343  0.31397479  0.00804752    -0.13230
C549        C  0.94553277  0.28334421  0.35695947    -0.14830
C550        C  0.95567562  0.26596826  0.34437365    -0.30000
H551        H  0.95337110  0.30471520  0.34061770     0.14190
H552        H  0.94657545  0.24385318  0.35900535     0.14770
C553        C  0.82447707  0.13834088  0.63548861    -0.14830
C554        C  0.79935445  0.12136893  0.65897736    -0.30000
H555        H  0.84251610  0.13420921  0.63725977     0.14190
H556        H  0.78082999  0.12465247  0.65553752     0.14770
C557        C  0.75950023  0.31737412  0.50916562    -0.11670
C558        C  0.77178903  0.30361410  0.51089906    -0.13230
C559        C  0.09722286  0.34014829  0.13455930    -0.14830
C560        C  0.07875075  0.31131471  0.14688833    -0.30000
H561        H  0.09552631  0.35758198  0.15069302     0.14190
H562        H  0.08045791  0.29361128  0.13179340     0.14770
C563        C  0.24239424  0.33667001  0.86229202    -0.14830
C564        C  0.22643760  0.30851256  0.84653890    -0.30000
H565        H  0.26465255  0.35253134  0.84903693     0.14190
H566        H  0.20365171  0.29286218  0.85811331     0.14770
C567        C  0.27783683  0.54302567  0.99228036    -0.11670
C568        C  0.29209962  0.57017048  0.99253265    -0.13230
C569        C  0.31304279  0.25479285  0.84964416    -0.14830
C570        C  0.28391477  0.24007176  0.83788253    -0.30000
H571        H  0.32923354  0.27611126  0.83396949     0.14190
H572        H  0.26753553  0.21821661  0.85192386     0.14770
C573        C  0.29799873  0.11649654  0.13364221    -0.14830
C574        C  0.31127543  0.10711057  0.16068992    -0.30000
H575        H  0.27382588  0.10628439  0.13512104     0.14190
H576        H  0.33528236  0.11675918  0.15799531     0.14770
C577        C  0.51760807  0.29127885  0.99541321    -0.11670
C578        C  0.54483586  0.30549180  0.99507368    -0.13230
C579        C  0.08197362  0.30999137  0.33823673    -0.14830
C580        C  0.09947525  0.33892495  0.35118287    -0.30000
H581        H  0.08434101  0.29252874  0.35273179     0.14190
H582        H  0.09717731  0.35611331  0.33545640     0.14770
C583        C  0.24045813  0.32737100  0.65957883    -0.14830
C584        C  0.21611824  0.31567264  0.63410491    -0.30000
H585        H  0.25777814  0.35123158  0.65706664     0.14190
H586        H  0.19923092  0.29160954  0.63515478     0.14770
C587        C  0.29099308  0.56683076  0.50612927    -0.11670
C588        C  0.27706741  0.53957234  0.50767343    -0.13230
loop_ 
_geom_bond_atom_site_label_1 
_geom_bond_atom_site_label_2 
_geom_bond_distance 
_geom_bond_site_symmetry_2 
_ccdc_geom_bond_type 
N1            N2   1.325       .  A
N1            C5   1.344       .  A
N1           Cu9   2.088       .  S
N2            C3   1.345       .  A
N2           Cu8   2.072       .  S
C3            C4   1.380       .  A
C3            H6   1.082       .  S
C4            C5   1.388       .  A
C4          C584   1.479       .  S
C5            H7   1.081       .  S
Cu8          N11   2.071       .  S
Cu9          N19   2.086       .  S
Cu10         N12   2.065       .  S
Cu10         N18   2.065       .  S
N11          N12   1.321       .  A
N11          C15   1.350       .  A
N12          C13   1.339       .  A
C13          C14   1.378       .  A
C13          H16   1.082       .  S
C14          C15   1.386       .  A
C14         C580   1.471       .  S
C15          H17   1.082       .  S
N18          N19   1.321       .  A
N18          C22   1.344       .  A
N19          C20   1.349       .  A
C20          C21   1.385       .  A
C20          H23   1.082       .  S
C21          C22   1.378       .  A
C21         C588   1.441       .  S
C22          H24   1.082       .  S
N25          N26   1.323       .  A
N25          C29   1.341       .  A
N25         Cu33   2.075       .  S
N26          C27   1.348       .  A
N26         Cu32   2.069       .  S
C27          C28   1.384       .  A
C27          H30   1.082       .  S
C28          C29   1.379       .  A
C28         C569   1.470       .  S
C29          H31   1.082       .  S
Cu32         N35   2.069   1_556  S
Cu33         N43   2.075       .  S
Cu34         N36   2.086       .  S
Cu34         N42   2.085       .  S
N35          N36   1.323       .  A
N35          C39   1.347       .  A
N36          C37   1.343       .  A
C37          C38   1.388       .  A
C37          H40   1.081       .  S
C38          C39   1.381       .  A
C38         C573   1.481       .  S
C39          H41   1.082       .  S
N42          N43   1.321   1_554  A
N42          C46   1.349       .  A
N43          C44   1.347       .  A
C44          C45   1.382       .  A
C44          H47   1.082       .  S
C45          C46   1.384   1_556  A
C45         C577   1.446       .  S
C46          H48   1.082       .  S
N49          N50   1.325       .  A
N49          C53   1.338       .  A
N49         Cu57   2.053       .  S
N50          C51   1.353       .  A
N50         Cu56   2.111       .  S
C51          C52   1.392       .  A
C51          H54   1.082       .  S
C52          C53   1.372       .  A
C52         C563   1.475       .  S
C53          H55   1.082       .  S
Cu56         N59   2.110   1_556  S
Cu57         N67   2.052       .  S
Cu58         N60   2.048       .  S
Cu58         N66   2.049       .  S
N59          N60   1.324       .  A
N59          C63   1.355       .  A
N60          C61   1.336       .  A
C61          C62   1.371       .  A
C61          H64   1.082       .  S
C62          C63   1.394       .  A
C62         C559   1.474       .  S
C63          H65   1.082       .  S
N66          N67   1.317   1_554  A
N66          C70   1.343       .  A
N67          C68   1.343       .  A
C68          C69   1.379       .  A
C68          H71   1.082       .  S
C69          C70   1.378   1_556  A
C69         C567   1.431       .  S
C70          H72   1.082       .  S
N73          N74   1.323       .  A
N73          C77   1.347       .  A
N73         Cu81   2.089       .  S
N74          C75   1.343       .  A
N74         Cu80   2.058       .  S
C75          C76   1.377       .  A
C75          H78   1.082       .  S
C76          C77   1.390       .  A
C76         C553   1.476       .  S
C77          H79   1.082       .  S
Cu80         N83   2.058       .  S
Cu81         N91   2.089       .  S
Cu82         N84   2.059       .  S
Cu82         N90   2.059       .  S
N83          N84   1.320       .  A
N83          C87   1.342       .  A
N84          C85   1.344       .  A
C85          C86   1.381       .  A
C85          H88   1.082       .  S
C86          C87   1.385       .  A
C86         C549   1.471       .  S
C87          H89   1.081       .  S
N90          N91   1.324       .  A
N90          C94   1.342       .  A
N91          C92   1.348       .  A
C92          C93   1.383       .  A
C92          H95   1.082       .  S
C93          C94   1.374       .  A
C93         C558   1.436       .  S
C94          H96   1.082       .  S
N97          N98   1.322       .  A
N97         C101   1.347       .  A
N97        Cu105   2.090       .  S
N98          C99   1.343       .  A
N98        Cu104   2.060   1_554  S
C99         C100   1.378       .  A
C99         H102   1.082       .  S
C100        C101   1.390       .  A
C100        C539   1.477       .  S
C101        H103   1.082       .  S
Cu104       N107   2.060       .  S
Cu105       N115   2.089       .  S
Cu106       N108   2.061       .  S
Cu106       N114   2.062       .  S
N107        N108   1.320       .  A
N107        C111   1.342       .  A
N108        C109   1.344       .  A
C109        C110   1.381       .  A
C109        H112   1.082       .  S
C110        C111   1.384       .  A
C110        C543   1.472       .  S
C111        H113   1.081       .  S
N114        N115   1.324   1_556  A
N114        C118   1.342       .  A
N115        C116   1.349       .  A
C116        C117   1.383       .  A
C116        H119   1.082       .  S
C117        C118   1.375   1_554  A
C117        C547   1.437       .  S
C118        H120   1.082       .  S
N121        N122   1.323       .  A
N121        C125   1.345       .  A
N121       Cu129   2.065       .  S
N122        C123   1.348       .  A
N122       Cu128   2.089       .  S
C123        C124   1.383       .  A
C123        H126   1.082       .  S
C124        C125   1.378       .  A
C124        C537   1.439       .  S
C125        H127   1.082       .  S
Cu128       N131   2.090       .  S
Cu129       N139   2.065       .  S
Cu130       N132   2.084       .  S
Cu130       N138   2.084       .  S
N131        N132   1.324       .  A
N131        C135   1.348       .  A
N132        C133   1.348       .  A
C133        C134   1.382       .  A
C133        H136   1.082       .  S
C134        C135   1.383       .  A
C134        C578   1.446       .  S
C135        H137   1.082       .  S
N138        N139   1.323       .  A
N138        C142   1.347   1_556  A
N139        C140   1.344   1_556  A
C140        C141   1.377       .  A
C140        H143   1.082       .  S
C141        C142   1.382       .  A
C141        C548   1.437       .  S
C142        H144   1.082       .  S
N145        N146   1.323       .  A
N145        C149   1.342       .  A
N145       Cu153   2.063       .  S
N146        C147   1.347       .  A
N146       Cu152   2.083       .  S
C147        C148   1.388       .  A
C147        H150   1.082       .  S
C148        C149   1.377       .  A
C148        C533   1.474       .  S
C149        H151   1.082       .  S
Cu152       N155   2.083   1_554  S
Cu153       N163   2.063       .  S
Cu154       N156   2.076       .  S
Cu154       N162   2.076       .  S
N155        N156   1.323       .  A
N155        C159   1.349       .  A
N156        C157   1.342       .  A
C157        C158   1.386       .  A
C157        H160   1.081       .  S
C158        C159   1.385       .  A
C158        C529   1.482       .  S
C159        H161   1.082       .  S
N162        N163   1.321   1_556  A
N162        C166   1.347       .  A
N163        C164   1.344       .  A
C164        C165   1.379   1_554  A
C164        H167   1.082       .  S
C165        C166   1.383       .  A
C165        C538   1.439       .  S
C166        H168   1.082       .  S
O169       Cu177   1.978       .  S
O169        C179   1.275       .  A
O170       Cu177   1.979   1_655  S
O170        C180   1.272       .  A
O171       Cu177   2.007   1_655  S
O171        C181   1.278       .  A
O172       Cu177   2.011       .  S
O172        C182   1.281       .  A
O173       Cu178   2.009       .  S
O173        C182   1.275       .  A
O174       Cu178   1.997   1_655  S
O174        C181   1.275       .  A
O175       Cu178   2.037   1_655  S
O175        C180   1.283       .  A
O176       Cu178   2.038       .  S
O176        C179   1.281       .  A
Cu177      Cu178   2.374       .  S
C179        C579   1.481       .  S
C180        C540   1.472       .  S
C181        C550   1.468       .  S
C182        C560   1.480       .  S
N183        N184   1.323       .  A
N183        C187   1.340       .  A
N183       Cu191   2.059       .  S
N184        C185   1.347       .  A
N184       Cu190   2.076       .  S
C185        C186   1.385       .  A
C185        H188   1.082       .  S
C186        C187   1.376       .  A
C186        C523   1.468       .  S
C187        H189   1.082       .  S
Cu190       N193   2.076       .  S
Cu191       N201   2.058       .  S
Cu192       N194   2.067       .  S
Cu192       N200   2.066       .  S
N193        N194   1.323       .  A
N193        C197   1.348       .  A
N194        C195   1.340       .  A
C195        C196   1.378       .  A
C195        H198   1.082       .  S
C196        C197   1.384       .  A
C196        C519   1.469       .  S
C197        H199   1.082       .  S
N200        N201   1.320       .  A
N200        C204   1.345       .  A
N201        C202   1.343       .  A
C202        C203   1.378       .  A
C202        H205   1.082       .  S
C203        C204   1.380       .  A
C203        C527   1.433       .  S
C204        H206   1.082       .  S
N207        N208   1.323       .  A
N207        C211   1.347       .  A
N207       Cu215   2.080       .  S
N208        C209   1.346       .  A
N208       Cu214   2.076       .  S
C209        C210   1.380       .  A
C209        H212   1.082       .  S
C210        C211   1.382       .  A
C210        C587   1.441       .  S
C211        H213   1.082       .  S
Cu214       N217   2.075       .  S
Cu215       N225   2.079       .  S
Cu216       N218   2.063       .  S
Cu216       N224   2.063       .  S
N217        N218   1.322       .  A
N217        C221   1.345       .  A
N218        C219   1.344       .  A
C219        C220   1.378       .  A
C219        H222   1.082       .  S
C220        C221   1.379       .  A
C220        C517   1.434       .  S
C221        H223   1.082       .  S
N224        N225   1.324       .  A
N224        C228   1.344       .  A
N225        C226   1.346       .  A
C226        C227   1.380       .  A
C226        H229   1.082       .  S
C227        C228   1.376       .  A
C227        C528   1.434       .  S
C228        H230   1.082       .  S
N231        N232   1.325       .  A
N231        C235   1.338       .  A
N231       Cu239   2.056       .  S
N232        C233   1.354       .  A
N232       Cu238   2.110       .  S
C233        C234   1.393       .  A
C233        H236   1.082       .  S
C234        C235   1.372       .  A
C234        C514   1.475       .  S
C235        H237   1.082       .  S
Cu238       N241   2.110       .  S
Cu239       N249   2.055       .  S
Cu240       N242   2.055       .  S
Cu240       N248   2.055       .  S
N241        N242   1.324       .  A
N241        C245   1.355       .  A
N242        C243   1.337       .  A
C243        C244   1.372       .  A
C243        H246   1.082       .  S
C244        C245   1.393       .  A
C244        C509   1.476       .  S
C245        H247   1.082       .  S
N248        N249   1.317       .  A
N248        C252   1.344       .  A
N249        C250   1.344       .  A
C250        C251   1.380       .  A
C250        H253   1.082       .  S
C251        C252   1.380       .  A
C251        C518   1.434       .  S
C252        H254   1.082       .  S
N255        N256   1.325       .  A
N255        C259   1.340       .  A
N255       Cu263   2.062       .  S
N256        C257   1.353       .  A
N256       Cu262   2.111       .  S
C257        C258   1.392       .  A
C257        H260   1.082       .  S
C258        C259   1.374       .  A
C258        C499   1.478       .  S
C259        H261   1.082       .  S
Cu262       N265   2.110       .  S
Cu263       N273   2.061       .  S
Cu264       N266   2.050       .  S
Cu264       N272   2.050       .  S
N265        N266   1.324       .  A
N265        C269   1.354       .  A
N266        C267   1.337       .  A
C267        C268   1.372       .  A
C267        H270   1.082       .  S
C268        C269   1.393       .  A
C268        C503   1.475       .  S
C269        H271   1.082       .  S
N272        N273   1.318       .  A
N272        C276   1.343       .  A
N273        C274   1.345       .  A
C274        C275   1.381       .  A
C274        H277   1.082       .  S
C275        C276   1.378       .  A
C275        C507   1.433       .  S
C276        H278   1.082       .  S
N279        N280   1.322       .  A
N279        C283   1.345       .  A
N279       Cu287   2.065       .  S
N280        C281   1.344       .  A
N280       Cu286   2.069       .  S
C281        C282   1.378       .  A
C281        H284   1.082       .  S
C282        C283   1.379       .  A
C282        C508   1.434       .  S
C283        H285   1.082       .  S
Cu286       N289   2.070       .  S
Cu287       N297   2.066       .  S
Cu288       N290   2.086       .  S
Cu288       N296   2.085       .  S
N289        N290   1.323       .  A
N289        C293   1.345       .  A
N290        C291   1.348       .  A
C291        C292   1.383       .  A
C291        H294   1.082       .  S
C292        C293   1.378       .  A
C292        C498   1.440       .  S
C293        H295   1.082       .  S
N296        N297   1.324       .  A
N296        C300   1.347       .  A
N297        C298   1.344       .  A
C298        C299   1.376       .  A
C298        H301   1.082       .  S
C299        C300   1.381       .  A
C299        C557   1.436       .  S
C300        H302   1.082       .  S
N303        N304   1.325       .  A
N303        C307   1.343       .  A
N303       Cu311   2.088       .  S
N304        C305   1.347       .  A
N304       Cu310   2.081       .  S
C305        C306   1.382       .  A
C305        H308   1.082       .  S
C306        C307   1.387       .  A
C306        C493   1.482       .  S
C307        H309   1.081       .  S
Cu310       N313   2.080       .  S
Cu311       N321   2.085       .  S
Cu312       N314   2.056       .  S
Cu312       N320   2.056       .  S
N313        N314   1.321       .  A
N313        C317   1.351       .  A
N314        C315   1.338       .  A
C315        C316   1.376       .  A
C315        H318   1.082       .  S
C316        C317   1.388       .  A
C316        C489   1.470       .  S
C317        H319   1.082       .  S
N320        N321   1.320       .  A
N320        C324   1.343       .  A
N321        C322   1.349       .  A
C322        C323   1.385       .  A
C322        H325   1.082       .  S
C323        C324   1.377       .  A
C323        C497   1.440       .  S
C324        H326   1.082       .  S
N327        N328   1.321       .  A
N327        C331   1.344       .  A
N327       Cu335   2.060       .  S
N328        C329   1.344       .  A
N328       Cu334   2.073       .  S
C329        C330   1.387       .  A
C329        H332   1.081       .  S
C330        C331   1.380       .  A
C330        C480   1.476       .  S
C331        H333   1.082       .  S
Cu334       N337   2.073   1_554  S
Cu335       N345   2.060       .  S
Cu336       N338   2.080       .  S
Cu336       N344   2.079       .  S
N337        N338   1.323       .  A
N337        C341   1.345       .  A
N338        C339   1.345       .  A
C339        C340   1.387       .  A
C339        H342   1.081       .  S
C340        C341   1.381       .  A
C340        C483   1.478       .  S
C341        H343   1.082       .  S
N344        N345   1.323   1_556  A
N344        C348   1.347       .  A
N345        C346   1.342       .  A
C346        C347   1.375   1_554  A
C346        H349   1.082       .  S
C347        C348   1.381       .  A
C347        C487   1.434       .  S
C348        H350   1.082       .  S
N351        N352   1.323       .  A
N351        C355   1.347       .  A
N351       Cu359   2.084       .  S
N352        C353   1.345       .  A
N352       Cu358   2.071       .  S
C353        C354   1.378       .  A
C353        H356   1.082       .  S
C354        C355   1.382       .  A
C354        C477   1.440   1_556  S
C355        H357   1.082   1_556  S
Cu358       N361   2.070       .  S
Cu359       N369   2.083       .  S
Cu360       N362   2.059       .  S
Cu360       N368   2.059       .  S
N361        N362   1.322       .  A
N361        C365   1.344       .  A
N362        C363   1.343       .  A
C363        C364   1.377       .  A
C363        H366   1.082       .  S
C364        C365   1.378       .  A
C364        C568   1.431       .  S
C365        H367   1.082       .  S
N368        N369   1.323       .  A
N368        C372   1.343       .  A
N369        C370   1.347       .  A
C370        C371   1.381       .  A
C370        H373   1.082       .  S
C371        C372   1.375       .  A
C371        C488   1.434       .  S
C372        H374   1.082       .  S
N375        N376   1.326       .  A
N375        C379   1.339       .  A
N375       Cu383   2.076       .  S
N376        C377   1.353       .  A
N376       Cu382   2.096   1_554  S
C377        C378   1.388       .  A
C377        H380   1.082       .  S
C378        C379   1.377       .  A
C378        C474   1.475       .  S
C379        H381   1.082       .  S
Cu382       N385   2.095       .  S
Cu383       N393   2.074       .  S
Cu384       N386   2.060       .  S
Cu384       N392   2.059       .  S
N385        N386   1.324       .  A
N385        C389   1.354       .  A
N386        C387   1.336       .  A
C387        C388   1.374       .  A
C387        H390   1.082       .  S
C388        C389   1.390       .  A
C388        C469   1.473       .  S
C389        H391   1.082       .  S
N392        N393   1.319   1_556  A
N392        C396   1.344       .  A
N393        C394   1.347       .  A
C394        C395   1.384       .  A
C394        H397   1.082       .  S
C395        C396   1.380   1_554  A
C395        C478   1.440       .  S
C396        H398   1.082       .  S
O399       Cu407   2.011       .  S
O399        C409   1.281       .  A
O400       Cu407   2.006       .  S
O400        C410   1.278       .  A
O401       Cu407   1.982       .  S
O401        C411   1.272       .  A
O402       Cu407   1.982       .  S
O402        C412   1.276       .  A
O403       Cu408   2.037       .  S
O403        C412   1.280       .  A
O404       Cu408   2.034       .  S
O404        C411   1.283       .  A
O405       Cu408   2.000       .  S
O405        C410   1.275       .  A
O406       Cu408   2.013       .  S
O406        C409   1.276       .  A
Cu407      Cu408   2.374       .  S
C409        C510   1.482   1_545  S
C410        C544   1.468       .  S
C411        C554   1.473       .  S
C412        C470   1.484   1_545  S
O413       Cu421   1.979       .  S
O413        C423   1.272       .  A
O414       Cu421   1.980       .  S
O414        C424   1.275       .  A
O415       Cu421   2.011       .  S
O415        C425   1.280       .  A
O416       Cu421   2.014       .  S
O416        C426   1.281       .  A
O417       Cu422   2.009       .  S
O417        C426   1.276       .  A
O418       Cu422   2.005       .  S
O418        C425   1.276       .  A
O419       Cu422   2.043       .  S
O419        C424   1.281       .  A
O420       Cu422   2.041       .  S
O420        C423   1.283       .  A
Cu421      Cu422   2.373       .  S
C423        C494   1.473       .  S
C424        C473   1.484       .  S
C425        C534   1.474       .  S
C426        C513   1.480       .  S
O427       Cu435   2.001       .  S
O427        C437   1.275   1_545  A
O428       Cu435   2.007       .  S
O428        C438   1.275       .  A
O429       Cu435   2.038       .  S
O429        C439   1.282       .  A
O430       Cu435   2.036       .  S
O430        C440   1.280   1_545  A
O431       Cu436   1.971       .  S
O431        C440   1.274   1_545  A
O432       Cu436   1.976       .  S
O432        C439   1.272       .  A
O433       Cu436   2.015       .  S
O433        C438   1.281       .  A
O434       Cu436   2.016       .  S
O434        C437   1.280   1_545  A
Cu435      Cu436   2.374       .  S
C437        C479   1.472       .  S
C438        C504   1.480       .  S
C439        C574   1.471       .  S
C440        C520   1.477       .  S
O441       Cu449   2.026       .  S
O441        C451   1.281       .  A
O442       Cu449   2.024       .  S
O442        C452   1.278   1_455  A
O443       Cu449   2.025       .  S
O443        C453   1.280   1_455  A
O444       Cu449   2.019       .  S
O444        C454   1.278       .  A
O445       Cu450   1.988       .  S
O445        C454   1.277       .  A
O446       Cu450   1.993       .  S
O446        C453   1.275   1_455  A
O447       Cu450   1.990       .  S
O447        C452   1.277   1_455  A
O448       Cu450   1.994       .  S
O448        C451   1.275       .  A
Cu449      Cu450   2.374       .  S
C451        C484   1.474       .  S
C452        C490   1.479       .  S
C453        C530   1.473       .  S
C454        C524   1.473       .  S
O455       Cu463   2.040       .  S
O455        C465   1.283       .  A
O456       Cu463   2.040       .  S
O456        C466   1.281       .  A
O457       Cu463   2.006       .  S
O457        C467   1.275       .  A
O458       Cu463   2.008       .  S
O458        C468   1.275       .  A
O459       Cu464   2.021       .  S
O459        C468   1.281       .  A
O460       Cu464   2.018       .  S
O460        C467   1.281       .  A
O461       Cu464   1.971       .  S
O461        C466   1.274       .  A
O462       Cu464   1.975       .  S
O462        C465   1.272       .  A
Cu463      Cu464   2.374       .  S
C465        C583   1.471       .  S
C466        C570   1.479       .  S
C467        C564   1.479       .  S
C468        C500   1.480       .  S
C469        C470   1.345       .  D
C469        H471   1.087       .  S
C470        H472   1.086       .  S
C473        C474   1.347       .  D
C473        H475   1.086       .  S
C474        H476   1.087       .  S
C477        C478   1.208       .  T
C479        C480   1.341       .  D
C479        H481   1.085       .  S
C480        H482   1.087       .  S
C483        C484   1.342       .  D
C483        H485   1.086       .  S
C484        H486   1.085       .  S
C487        C488   1.204       .  T
C489        C490   1.343       .  D
C489        H491   1.087       .  S
C490        H492   1.086       .  S
C493        C494   1.341       .  D
C493        H495   1.086       .  S
C494        H496   1.085       .  S
C497        C498   1.208       .  T
C499        C500   1.341       .  D
C499        H501   1.087       .  S
C500        H502   1.086       .  S
C503        C504   1.339       .  D
C503        H505   1.087       .  S
C504        H506   1.086       .  S
C507        C508   1.204       .  T
C509        C510   1.341       .  D
C509        H511   1.087       .  S
C510        H512   1.086       .  S
C513        C514   1.340       .  D
C513        H515   1.086       .  S
C514        H516   1.087       .  S
C517        C518   1.204       .  T
C519        C520   1.345       .  D
C519        H521   1.087       .  S
C520        H522   1.086       .  S
C523        C524   1.342       .  D
C523        H525   1.087       .  S
C524        H526   1.086       .  S
C527        C528   1.204       .  T
C529        C530   1.344       .  D
C529        H531   1.086       .  S
C530        H532   1.085       .  S
C533        C534   1.341       .  D
C533        H535   1.087       .  S
C534        H536   1.086       .  S
C537        C538   1.207       .  T
C539        C540   1.338       .  D
C539        H541   1.086       .  S
C540        H542   1.086       .  S
C543        C544   1.341       .  D
C543        H545   1.087       .  S
C544        H546   1.086       .  S
C547        C548   1.206       .  T
C549        C550   1.340       .  D
C549        H551   1.087       .  S
C550        H552   1.086       .  S
C553        C554   1.338       .  D
C553        H555   1.086       .  S
C554        H556   1.086       .  S
C557        C558   1.205       .  T
C559        C560   1.340       .  D
C559        H561   1.087       .  S
C560        H562   1.086       .  S
C563        C564   1.339       .  D
C563        H565   1.087       .  S
C564        H566   1.086       .  S
C567        C568   1.202       .  T
C569        C570   1.347       .  D
C569        H571   1.087       .  S
C570        H572   1.086       .  S
C573        C574   1.340       .  D
C573        H575   1.086       .  S
C574        H576   1.085       .  S
C577        C578   1.211       .  T
C579        C580   1.346       .  D
C579        H581   1.086       .  S
C580        H582   1.087       .  S
C583        C584   1.339       .  D
C583        H585   1.086       .  S
C584        H586   1.086       .  S
C587        C588   1.208       .  T
