geometry optimzed in LAMMPS
_audit_creation_date              2020-12-01 
_audit_creation_method            'lammps2cif' 
_symmetry_space_group_name_H-M    'P1' 
_symmetry_Int_Tables_number       1 
_symmetry_cell_setting            triclinic 
loop_ 
_symmetry_equiv_pos_as_xyz 
  x,y,z 
_cell_length_a                    48.67225674 
_cell_length_b                    43.836542082160584 
_cell_length_c                    39.429589745473805 
_cell_angle_alpha                 91.69927787311542 
_cell_angle_beta                  98.27730247960052 
_cell_angle_gamma                 88.69718387736181 
loop_ 
_atom_site_label 
_atom_site_type_symbol 
_atom_site_fract_x 
_atom_site_fract_y 
_atom_site_fract_z 
_atom_site_charge 
C1          C  0.97791910  0.03299385  0.40633470     0.29900
C2          C  0.97995723  0.47088865  0.40397987     0.29900
C3          C  0.95641079  0.01671477  0.38009887    -0.06300
C4          C  0.00514171  0.01832396  0.39504039    -0.07100
C5          C  0.97653902  0.01717130  0.44041639    -0.07000
C6          C  0.95688508  0.48652069  0.37968496    -0.06300
C7          C  0.00571393  0.48647128  0.39235872    -0.07100
C8          C  0.97869645  0.48661821  0.43902360    -0.07000
C9          C  0.94397364  0.47728547  0.34776563    -0.32300
N10         N  0.93484452  0.50219324  0.32961558     0.14200
C11         C  0.94372174  0.02556613  0.34810183    -0.32400
H12         H  0.94168242  0.04866759  0.33903817     0.16100
C13         C  0.02550333  0.47791588  0.37166269    -0.31300
N14         N  0.03852465  0.50299416  0.36269755     0.12900
C15         C  0.02553866  0.02762671  0.37613571    -0.31300
C16         C  0.98646430  0.47714766  0.47220258    -0.31600
N17         N  0.98881183  0.00092568  0.49397760     0.13400
H18         H  0.99125107  0.45384795  0.47954903     0.16000
C19         C  0.98407871  0.02616314  0.47451617    -0.31600
H20         H  0.98790011  0.04934718  0.48383760     0.16000
H21         H  0.02922847  0.05072148  0.36941154     0.16000
H22         H  0.94312128  0.45399578  0.33794568     0.16100
H23         H  0.02902655  0.45515733  0.36192083     0.16000
Zr24       Zr  0.87525712  0.20122570  0.34169558     2.17500
O25         O  0.85781847  0.17472896  0.38748684    -0.51400
O26         O  0.86716666  0.15860646  0.29864523    -0.74600
O27         O  0.82359920  0.20640987  0.33792499    -0.81400
O28         O  0.95183628  0.17229938  0.35651122    -0.83200
O29         O  0.81126958  0.25657286  0.33048793    -0.78800
O30         O  0.90929123  0.16346950  0.37009040    -0.90400
O31         O  0.86727256  0.17665343  0.24585255    -0.76400
O32         O  0.85486509  0.23027331  0.29393858    -0.85900
O33         O  0.90895443  0.19899879  0.30339639    -0.85600
O34         O  0.86839807  0.25293702  0.36318303    -0.72300
O35         O  0.91645356  0.22512826  0.37167329    -0.84500
Zr36       Zr  0.92203471  0.30094819  0.30478679     2.26400
Zr37       Zr  0.84964630  0.28228948  0.31433652     2.06300
Zr38       Zr  0.95000172  0.22279783  0.33245818     2.10000
Zr39       Zr  0.88762336  0.22630492  0.25501034     1.78800
O40         O  0.98628275  0.23242858  0.38065759    -0.93300
O41         O  0.84593381  0.23445484  0.21376204    -0.41100
O42         O  0.92885186  0.24986440  0.28307932    -0.77700
O43         O  0.88150328  0.27754153  0.27440908    -0.96400
O44         O  0.88981017  0.30580531  0.34420416    -0.89700
O45         O  0.94290657  0.27374768  0.35351794    -0.92500
C46         C  0.86457360  0.15482194  0.26566023     1.01200
C47         C  0.93525434  0.15605297  0.37048502     1.14100
C48         C  0.80563374  0.22884799  0.33482899     1.04900
O49         O  0.80679252  0.28993843  0.27511271    -0.94700
O50         O  0.84853531  0.32812762  0.27947503    -0.90400
O51         O  0.89352110  0.34176455  0.28094891    -0.83600
C52         C  0.86753364  0.34563889  0.27182786     1.11600
O53         O  0.89533743  0.25516770  0.44262586    -0.96700
Zr54       Zr  0.90976638  0.27700663  0.39192135     1.88900
O55         O  0.94116873  0.34097523  0.34449417    -0.73300
O56         O  0.83422274  0.31901168  0.35549616    -0.52600
O57         O  0.87967943  0.31212848  0.41933943    -0.97300
O58         O  0.94906306  0.26682611  0.43609583    -0.54500
O59         O  0.93421133  0.32635676  0.39749748    -0.73800
C60         C  0.94315201  0.34518880  0.37709550     0.98500
O61         O  0.92228889  0.32784077  0.25157750    -0.62700
O62         O  0.98242867  0.18929026  0.30676499    -0.57500
O63         O  0.97097691  0.29230101  0.30737398    -0.94100
O64         O  0.97978349  0.24442209  0.29479465    -0.92600
O65         O  0.91601850  0.19075922  0.22589455    -0.92900
O66         O  0.89695040  0.25007444  0.20300290    -0.91700
C67         C  0.97935069  0.27253866  0.28710487     1.17300
H68         H  0.91385218  0.17838180  0.29696992     0.33300
H69         H  0.87508031  0.28848475  0.25405118     0.44100
H70         H  0.96011349  0.28261134  0.36420582     0.37700
H71         H  0.85505816  0.25266249  0.37914867     0.34100
H72         H  0.83096037  0.22448554  0.22362007     0.25900
H73         H  0.81561913  0.32594173  0.34458751     0.31900
H74         H  0.89206413  0.32197212  0.43847932     0.37800
H75         H  0.91105879  0.19450455  0.20111757     0.32200
H76         H  0.99623462  0.18226793  0.32597146     0.31100
H77         H  0.00312657  0.23581244  0.36998269     0.32800
H78         H  0.96511790  0.27637252  0.42805409     0.31800
H79         H  0.90435151  0.27031274  0.21066419     0.35800
H80         H  0.93654783  0.34369904  0.25477013     0.28500
H81         H  0.84297128  0.16139603  0.37589079     0.32700
H82         H  0.90223194  0.26905274  0.46210739     0.35600
H83         H  0.97177379  0.17093258  0.29831489     0.28200
H84         H  0.92736951  0.31279315  0.23434706     0.41100
H85         H  0.80783097  0.27453814  0.25645262     0.31100
H86         H  0.84156955  0.25655063  0.21554569     0.38700
H87         H  0.95272437  0.24460135  0.43393149     0.30600
H88         H  0.83047569  0.30657917  0.37482024     0.30700
H89         H  0.84803611  0.19061558  0.39983194     0.30900
C90         C  0.87797737  0.46485190  0.22079969     0.29900
C91         C  0.87214661  0.02629579  0.21938846     0.29900
C92         C  0.89360429  0.48319198  0.25035043    -0.06300
C93         C  0.89060156  0.47953391  0.19074630    -0.07100
C94         C  0.84843753  0.47745534  0.21469244    -0.07000
C95         C  0.89037403  0.01278728  0.25070446    -0.06300
C96         C  0.88828014  0.01148365  0.19024353    -0.07100
C97         C  0.84501598  0.00794866  0.21411521    -0.07000
C98         C  0.90811603  0.02381530  0.27883374    -0.32300
N99         N  0.92010551  0.50166076  0.29607385     0.14200
C100        C  0.91330724  0.47586474  0.27746317    -0.32400
H101        H  0.92069840  0.45306252  0.28404319     0.16100
C102        C  0.91199567  0.02085764  0.17707766    -0.31300
N103        N  0.92682796  0.49750114  0.16739627     0.12900
C104        C  0.91520885  0.47212877  0.17779979    -0.31300
C105        C  0.81624928  0.01341217  0.20793812    -0.31600
N106        N  0.80284020  0.48544394  0.20456947     0.13400
H107        H  0.80588146  0.03552808  0.20637972     0.16000
C108        C  0.82292146  0.46371498  0.20833620    -0.31600
H109        H  0.81913041  0.43943301  0.20708873     0.16000
H110        H  0.92544254  0.44999479  0.17944587     0.16000
H111        H  0.91062290  0.04749153  0.28695217     0.16100
H112        H  0.91883662  0.04415065  0.17723082     0.16000
C113        C  0.01520807  0.03016051  0.11948908     0.29900
C114        C  0.01569468  0.46749957  0.11397838     0.29900
C115        C  0.03949801  0.01357210  0.14067858    -0.06300
C116        C  0.98954862  0.01393842  0.13128808    -0.07100
C117        C  0.01353091  0.01580840  0.08315754    -0.07000
C118        C  0.03902912  0.48236722  0.13840956    -0.06300
C119        C  0.99020725  0.48240174  0.12953100    -0.07100
C120        C  0.01404130  0.48452219  0.08018025    -0.07000
C121        C  0.05310831  0.47249618  0.16935556    -0.32300
N122        N  0.06329344  0.49709794  0.18808734     0.14200
C123        C  0.05499543  0.02218175  0.17141875    -0.32400
H124        H  0.05777262  0.04524649  0.18139721     0.16100
C125        C  0.96765023  0.47323582  0.14473344    -0.31300
N126        N  0.95208518  0.49812764  0.15260951     0.12900
C127        C  0.96475469  0.02216733  0.14335090    -0.31300
C128        C  0.00531439  0.47598040  0.04631636    -0.31600
N129        N  0.00006034  0.00136528  0.02844000     0.13400
H130        H  0.00204303  0.45281364  0.03664281     0.16000
C131        C  0.00333043  0.02586400  0.05054490    -0.31600
H132        H  0.99785517  0.04920039  0.04389782     0.16000
H133        H  0.95631099  0.04507255  0.14505300     0.16000
H134        H  0.05386014  0.44938441  0.17837071     0.16100
H135        H  0.96327053  0.45014455  0.15055258     0.16000
Zr136      Zr  0.12047320  0.19844521  0.18027084     2.17500
O137        O  0.14201550  0.16551060  0.14022867    -0.51400
O138        O  0.12767846  0.16302942  0.22831984    -0.74600
O139        O  0.17231375  0.20248102  0.18915278    -0.81400
O140        O  0.04610028  0.17470945  0.14288299    -0.83200
O141        O  0.18348028  0.24501391  0.22235716    -0.78800
O142        O  0.09026291  0.15580191  0.15521138    -0.90400
O143        O  0.09408056  0.17196491  0.26151832    -0.76400
O144        O  0.12617811  0.22315686  0.23537544    -0.85900
O145        O  0.07567846  0.20134697  0.19839295    -0.85600
O146        O  0.13492468  0.24949191  0.17004398    -0.72300
O147        O  0.09086906  0.22691313  0.13639955    -0.84500
Zr148      Zr  0.06853340  0.30224347  0.20316223     2.26400
Zr149      Zr  0.14130412  0.27345984  0.22606651     2.06300
Zr150      Zr  0.04632079  0.22889477  0.15540277     2.10000
Zr151      Zr  0.08125840  0.22524534  0.25311755     1.78800
O152        O  0.03491318  0.23339398  0.09359258    -0.93300
O153        O  0.11194858  0.22922492  0.30754244    -0.41100
O154        O  0.05043551  0.25291152  0.21131644    -0.77700
O155        O  0.09753520  0.27496446  0.24625238    -0.96400
O156        O  0.11238940  0.30306129  0.18441227    -0.89700
O157        O  0.06082462  0.27880151  0.14766517    -0.92500
C158        C  0.11336706  0.15509436  0.25163182     1.01200
C159        C  0.06386294  0.15267242  0.14523348     1.14100
C160        C  0.19007759  0.22133648  0.20546863     1.04900
O161        O  0.16498079  0.26679045  0.28417795    -0.94700
O162        O  0.13687614  0.32138327  0.25728705    -0.90400
O163        O  0.09344184  0.34023045  0.23918389    -0.83600
C164        C  0.11756366  0.34181671  0.25676603     1.11600
O165        O  0.13530839  0.26049907  0.08925959    -0.96700
Zr166      Zr  0.10450195  0.27908829  0.12911727     1.88900
O167        O  0.06041639  0.34341429  0.16399533    -0.73300
O168        O  0.17631586  0.30724496  0.21054805    -0.52600
O169        O  0.14021895  0.31645541  0.12597472    -0.97300
O170        O  0.08139762  0.27193834  0.07043794    -0.54500
O171        O  0.07763429  0.32754150  0.11575496    -0.73800
C172        C  0.06367813  0.34657933  0.13274953     0.98500
O173        O  0.04881917  0.32869337  0.24889353    -0.62700
O174        O  0.00010505  0.20731204  0.14964701    -0.57500
O175        O  0.02070671  0.30894441  0.18259417    -0.94100
O176        O  0.00694889  0.26145084  0.16474704    -0.92600
O177        O  0.04089602  0.19854611  0.26639312    -0.92900
O178        O  0.05521397  0.25128945  0.29408733    -0.91700
C179        C  0.00202440  0.28914905  0.17430898     1.17300
H180        H  0.06846318  0.18165028  0.20198864     0.33300
H181        H  0.09858318  0.28563629  0.26819123     0.44100
H182        H  0.04661177  0.28891827  0.13214054     0.37700
H183        H  0.15234096  0.24874112  0.16118035     0.34100
H184        H  0.10098440  0.22166586  0.32474564     0.25900
H185        H  0.19123701  0.30733202  0.23046504     0.31900
H186        H  0.15793339  0.30565466  0.13400148     0.37800
H187        H  0.04715662  0.18884727  0.28861873     0.32200
H188        H  0.99711688  0.19663155  0.12697706     0.31100
H189        H  0.01855087  0.24741421  0.09055921     0.32800
H190        H  0.08895578  0.28800567  0.05745844     0.31800
H191        H  0.03919329  0.26099790  0.27979015     0.35800
H192        H  0.03835452  0.31265480  0.25827606     0.28500
H193        H  0.15649836  0.15345242  0.15453190     0.32700
H194        H  0.13768823  0.23840956  0.09368239     0.35600
H195        H  0.00121191  0.19101570  0.16663571     0.28200
H196        H  0.03478553  0.34283330  0.23697000     0.41100
H197        H  0.18248419  0.27807514  0.28518044     0.31100
H198        H  0.12652570  0.21334403  0.30596798     0.38700
H199        H  0.06192189  0.27860332  0.07116958     0.30600
H200        H  0.18456433  0.29624478  0.19204478     0.30700
H201        H  0.15238946  0.17942473  0.12757412     0.30900
C202        C  0.11804598  0.46709682  0.30167088     0.29900
C203        C  0.12013877  0.02994002  0.30200573     0.29900
C204        C  0.10331877  0.48215670  0.26946028    -0.06300
C205        C  0.10234764  0.48384874  0.32889334    -0.07100
C206        C  0.14662331  0.48113749  0.30933316    -0.07000
C207        C  0.10487968  0.01363314  0.27000225    -0.06300
C208        C  0.10307804  0.01692697  0.32958981    -0.07100
C209        C  0.14835580  0.01284770  0.30990594    -0.07000
C210        C  0.08854881  0.02261068  0.24038117    -0.32300
N211        N  0.07780510  0.49726697  0.22169383     0.14200
C212        C  0.08628969  0.47241725  0.24023467    -0.32400
H213        H  0.08108254  0.44907031  0.23283361     0.16100
C214        C  0.07799278  0.02669191  0.34056437    -0.31300
N215        N  0.06329775  0.50236590  0.34720208     0.12900
C216        C  0.07721450  0.47667285  0.33909763    -0.31300
C217        C  0.17653058  0.01982761  0.31575607    -0.31600
N218        N  0.19126598  0.49259227  0.31914067     0.13400
H219        H  0.18523042  0.04229796  0.31546726     0.16000
C220        C  0.17326826  0.46936341  0.31630370    -0.31600
H221        H  0.17925284  0.44543660  0.31750071     0.16000
H222        H  0.06860119  0.45411697  0.33772543     0.16000
H223        H  0.08457092  0.04585999  0.23243438     0.16100
H224        H  0.06980254  0.04982355  0.33991402     0.16000
C225        C  0.51497567  0.28267064  0.09918398     0.29900
C226        C  0.51771232  0.21965229  0.09566997     0.29900
C227        C  0.53954351  0.26723769  0.12126149    -0.06300
C228        C  0.49031952  0.26612526  0.11271306    -0.07100
C229        C  0.51406271  0.26773889  0.06344679    -0.07000
C230        C  0.54090343  0.23570563  0.11958704    -0.06300
C231        C  0.49170813  0.23357849  0.11079511    -0.07100
C232        C  0.51584047  0.23620256  0.06186695    -0.07000
C233        C  0.55682762  0.22640498  0.14950564    -0.32300
N234        N  0.56577634  0.25137133  0.16861426     0.14200
C235        C  0.55464663  0.27638209  0.15217676    -0.32400
H236        H  0.55535383  0.29936175  0.16301021     0.16100
C237        C  0.47034311  0.22338072  0.12748332    -0.31300
N238        N  0.45541562  0.24776754  0.13784307     0.12900
C239        C  0.46815516  0.27362809  0.13041207    -0.31300
C240        C  0.50717826  0.22711150  0.02838649    -0.31600
N241        N  0.50077743  0.25227592  0.00939417     0.13400
H242        H  0.50406845  0.20377501  0.01926548     0.16000
C243        C  0.50407951  0.27722611  0.03072975    -0.31600
H244        H  0.49804422  0.30032756  0.02363313     0.16000
H245        H  0.46267300  0.29600058  0.13946862     0.16000
H246        H  0.55984244  0.20308247  0.15764288     0.16100
H247        H  0.46669837  0.20005218  0.13324144     0.16000
Zr248      Zr  0.61561148  0.44946041  0.16566983     2.17500
O249        O  0.63567532  0.41705869  0.12397535    -0.51400
O250        O  0.61842101  0.41113236  0.21008153    -0.74600
O251        O  0.66760234  0.45027136  0.17681630    -0.81400
O252        O  0.53930441  0.42898400  0.12794687    -0.83200
O253        O  0.68023905  0.99527794  0.20616439    -0.78800
O254        O  0.58301058  0.40899767  0.13984331    -0.90400
O255        O  0.59559395  0.42889772  0.25329697    -0.76400
O256        O  0.62342826  0.47576530  0.21998725    -0.85900
O257        O  0.57195086  0.45439327  0.18607309    -0.85600
O258        O  0.63194941  0.00023348  0.15332633    -0.72300
O259        O  0.58627227  0.47835725  0.12255904    -0.84500
Zr260      Zr  0.56693369  0.05648767  0.18788202     2.26400
Zr261      Zr  0.63944599  0.02588318  0.20836046     2.06300
Zr262      Zr  0.54259620  0.48247723  0.14359543     2.10000
Zr263      Zr  0.57958993  0.48009518  0.24009228     1.78800
O264        O  0.52615036  0.47737340  0.08244631    -0.93300
O265        O  0.60721352  0.48414242  0.29663610    -0.41100
O266        O  0.54895059  0.50780505  0.19864659    -0.77700
O267        O  0.59662789  0.02950268  0.23097147    -0.96400
O268        O  0.61016021  0.05547731  0.16725267    -0.89700
O269        O  0.55829257  0.03177202  0.13311966    -0.92500
C270        C  0.60889298  0.40809160  0.23862841     1.01200
C271        C  0.55659093  0.40646836  0.12923345     1.14100
C272        C  0.68585562  0.46937263  0.19162093     1.04900
O273        O  0.66524233  0.02103628  0.26565846    -0.94700
O274        O  0.63817586  0.07431578  0.23867597    -0.90400
O275        O  0.59471422  0.09360558  0.22208260    -0.83600
C276        C  0.61924344  0.09504512  0.23849718     1.11600
O277        O  0.62913989  0.01087175  0.06988048    -0.96700
Zr278      Zr  0.60144652  0.02998971  0.11294840     1.88900
O279        O  0.55866487  0.09576530  0.14644573    -0.73300
O280        O  0.67349322  0.05725553  0.18680281    -0.52600
O281        O  0.63985341  0.06408572  0.11039649    -0.97300
O282        O  0.57731477  0.02129609  0.05502925    -0.54500
O283        O  0.57689749  0.07922753  0.09912278    -0.73800
C284        C  0.56287601  0.09856841  0.11548830     0.98500
O285        O  0.54243285  0.08656275  0.22724914    -0.62700
O286        O  0.50058246  0.46640296  0.16320555    -0.57500
O287        O  0.51793310  0.05833249  0.17330796    -0.94100
O288        O  0.50326265  0.51785291  0.13978903    -0.92600
O289        O  0.53640433  0.45534446  0.24628235    -0.92900
O290        O  0.55647299  0.50570301  0.28420153    -0.91700
C291        C  0.49880201  0.04283381  0.15542751     1.17300
H292        H  0.56413187  0.43491468  0.18964491     0.33300
H293        H  0.59861834  0.04053049  0.25258784     0.44100
H294        H  0.54434198  0.04202158  0.11732708     0.37700
H295        H  0.64938381  0.99817520  0.14409506     0.34100
H296        H  0.59957161  0.46871403  0.31038354     0.25900
H297        H  0.69003834  0.05658583  0.20462138     0.31900
H298        H  0.63554072  0.07367748  0.08778479     0.37800
H299        H  0.53892030  0.44889543  0.27038923     0.32200
H300        H  0.49033064  0.45505141  0.14345867     0.31100
H301        H  0.50567452  0.47692778  0.08081815     0.32800
H302        H  0.56141449  0.03592589  0.05274199     0.31800
H303        H  0.55211772  0.02740127  0.27428600     0.35800
H304        H  0.55298262  0.08394305  0.25043334     0.28500
H305        H  0.64893465  0.40318145  0.13770652     0.32700
H306        H  0.63118931  0.98867860  0.07383406     0.35600
H307        H  0.50696498  0.45105856  0.18060858     0.28200
H308        H  0.54454731  0.10824073  0.22186779     0.41100
H309        H  0.65084371  0.02175420  0.28104117     0.31100
H310        H  0.62576335  0.47584403  0.29335381     0.38700
H311        H  0.56873430  0.00108265  0.05561012     0.30600
H312        H  0.67912375  0.04542367  0.16706798     0.30700
H313        H  0.64739723  0.43071589  0.11283267     0.30900
C314        C  0.61694390  0.21936883  0.28331059     0.29900
C315        C  0.61684418  0.28207495  0.28587419     0.29900
C316        C  0.60429998  0.23526097  0.25080399    -0.06300
C317        C  0.59904659  0.23431835  0.30912327    -0.07100
C318        C  0.64492021  0.23429761  0.29422607    -0.07000
C319        C  0.60538977  0.26649418  0.25140139    -0.06300
C320        C  0.59956290  0.26659420  0.31149696    -0.07100
C321        C  0.64563495  0.26587079  0.29628312    -0.07000
C322        C  0.59172384  0.27604295  0.22013165    -0.32300
N323        N  0.58155865  0.25119057  0.20157888     0.14200
C324        C  0.58871635  0.22612236  0.22034451    -0.32400
H325        H  0.58297598  0.20296965  0.21274345     0.16100
C326        C  0.57968218  0.27545449  0.33219385    -0.31300
N327        N  0.56498676  0.25057936  0.33847862     0.12900
C328        C  0.57620822  0.22573767  0.32366452    -0.31300
C329        C  0.67344380  0.27267208  0.30821978    -0.31600
N330        N  0.68871170  0.24607516  0.31137939     0.13400
H331        H  0.68203604  0.29519559  0.31306023     0.16000
C332        C  0.67125519  0.22272049  0.30357137    -0.31600
H333        H  0.67750585  0.19885268  0.30386826     0.16000
H334        H  0.56728881  0.20330683  0.32134111     0.16000
H335        H  0.58855785  0.29938069  0.21209728     0.16100
H336        H  0.57470306  0.29867871  0.33943568     0.16000
C337        C  0.47475591  0.28298580  0.38512492     0.29900
C338        C  0.47597982  0.21997158  0.38541244     0.29900
C339        C  0.45132435  0.26671000  0.36214725    -0.06300
C340        C  0.50145272  0.26714220  0.37415692    -0.07100
C341        C  0.47477723  0.26847784  0.42022777    -0.07000
C342        C  0.45220821  0.23532333  0.36184916    -0.06300
C343        C  0.50149344  0.23492265  0.37274552    -0.07100
C344        C  0.47517949  0.23656806  0.42006313    -0.07000
C345        C  0.43105134  0.22559408  0.33732379    -0.32300
N346        N  0.41702596  0.25027617  0.32308022     0.15000
C347        C  0.42937476  0.27567303  0.33808509    -0.32400
H348        H  0.42403836  0.29886266  0.33071047     0.16100
C349        C  0.52465273  0.22594747  0.35774996    -0.31300
N350        N  0.54003916  0.25082381  0.35356800     0.12900
C351        C  0.52641133  0.27594499  0.36438100    -0.31300
C352        C  0.48440581  0.22775319  0.45296825    -0.31600
N353        N  0.48918990  0.25304749  0.47336228     0.13400
H354        H  0.48940766  0.20458180  0.46064443     0.16000
C355        C  0.48445427  0.27795962  0.45350957    -0.31600
H356        H  0.48954903  0.30111362  0.46192139     0.16000
H357        H  0.53353656  0.29909148  0.36400860     0.16000
H358        H  0.42704578  0.20221430  0.32967979     0.16100
H359        H  0.52934952  0.20310798  0.34913451     0.16000
Zr360      Zr  0.37725547  0.45195068  0.32376696     2.17500
O361        O  0.36235958  0.42573897  0.37146352    -0.51400
O362        O  0.36836970  0.40884200  0.28163259    -0.74600
O363        O  0.32608625  0.45692834  0.32369226    -0.81400
O364        O  0.45473301  0.42737007  0.34196281    -0.83200
O365        O  0.31328377  0.00686992  0.31478542    -0.78800
O366        O  0.41157505  0.41320639  0.34954892    -0.90400
O367        O  0.37563672  0.42632077  0.23009501    -0.76400
O368        O  0.35414893  0.48321172  0.27884572    -0.85900
O369        O  0.40916899  0.45129929  0.28278941    -0.85600
O370        O  0.37157520  0.00301423  0.34709287    -0.72300
O371        O  0.41976248  0.47409222  0.35223715    -0.84500
Zr372      Zr  0.42356957  0.05217779  0.28860731     2.26400
Zr373      Zr  0.35119049  0.03518753  0.30072962     2.06300
Zr374      Zr  0.45094631  0.47378762  0.31024283     2.10000
Zr375      Zr  0.38488763  0.48096740  0.23799996     1.78800
O376        O  0.49339494  0.48146420  0.35018854    -0.93300
O377        O  0.33564946  0.48936457  0.21839515    -0.41100
O378        O  0.42378522  0.50204601  0.26999877    -0.77700
O379        O  0.38103782  0.03236088  0.25778012    -0.96400
O380        O  0.39313653  0.05528064  0.33025369    -0.89700
O381        O  0.44619201  0.02328606  0.33508686    -0.92500
C382        C  0.37051359  0.40475565  0.24950320     1.01200
C383        C  0.43828718  0.40890917  0.35294568     1.14100
C384        C  0.30803754  0.47925934  0.32164891     1.04900
O385        O  0.30757804  0.04706495  0.26465513    -0.94700
O386        O  0.35280662  0.08314344  0.26854473    -0.90400
O387        O  0.39376088  0.09515196  0.29531351    -0.83600
C388        C  0.37362193  0.10109318  0.27238876     1.11600
O389        O  0.40791637  0.99564936  0.42550500    -0.96700
Zr390      Zr  0.41425488  0.02427625  0.37530929     1.88900
O391        O  0.44817157  0.08719652  0.33025052    -0.73300
O392        O  0.33698207  0.06935922  0.34511376    -0.52600
O393        O  0.38295624  0.05166613  0.40900817    -0.97300
O394        O  0.45583817  0.01851866  0.41734205    -0.54500
O395        O  0.43427573  0.07547286  0.38090150    -0.73800
C396        C  0.44606029  0.09301443  0.36186584     0.98500
O397        O  0.42464581  0.07776386  0.23490194    -0.62700
O398        O  0.47415634  0.43727869  0.27558781    -0.57500
O399        O  0.47143690  0.04173622  0.28630283    -0.94100
O400        O  0.47957719  0.49518855  0.27131378    -0.92600
O401        O  0.39210454  0.45728519  0.18315815    -0.92900
O402        O  0.39621336  0.50939225  0.18978825    -0.91700
C403        C  0.47686102  0.02318161  0.26304749     1.17300
H404        H  0.41462134  0.43141631  0.27541909     0.33300
H405        H  0.37408492  0.04434621  0.23808816     0.44100
H406        H  0.46382344  0.03153858  0.34545054     0.37700
H407        H  0.35890956  0.00221438  0.36385794     0.34100
H408        H  0.33501234  0.50051739  0.19681857     0.25900
H409        H  0.34344104  0.08970276  0.33981320     0.31900
H410        H  0.39475568  0.06675624  0.42310885     0.37800
H411        H  0.37319945  0.45463563  0.17036242     0.32200
H412        H  0.49370063  0.43594322  0.28729584     0.31100
H413        H  0.50820198  0.47172683  0.33857724     0.32800
H414        H  0.46847080  0.03467130  0.41239461     0.31800
H415        H  0.37666077  0.01967361  0.18006465     0.35800
H416        H  0.42940970  0.09910857  0.24109839     0.28500
H417        H  0.34673877  0.41278248  0.36128087     0.32700
H418        H  0.39967534  0.97619688  0.41602960     0.35600
H419        H  0.46624503  0.41737895  0.27864784     0.28200
H420        H  0.40543178  0.07860903  0.22269154     0.41100
H421        H  0.31136860  0.04284001  0.24094501     0.31100
H422        H  0.32873605  0.46882602  0.21089921     0.38700
H423        H  0.46473031  0.99926755  0.41031584     0.30600
H424        H  0.31650206  0.07080574  0.33961707     0.30700
H425        H  0.35386294  0.44185390  0.38495775     0.30900
C426        C  0.37883476  0.21378174  0.20474908     0.29900
C427        C  0.37424937  0.27669390  0.20349774     0.29900
C428        C  0.38445678  0.23123905  0.23956005    -0.06300
C429        C  0.39757376  0.22969199  0.18236854    -0.07100
C430        C  0.34946715  0.22656375  0.19191491    -0.07000
C431        C  0.38271188  0.26271030  0.23890830    -0.06300
C432        C  0.39503001  0.26134445  0.18137341    -0.07100
C433        C  0.34656284  0.25902952  0.19170093    -0.07000
C434        C  0.39071059  0.27348215  0.27218535    -0.32300
N435        N  0.39797668  0.24938147  0.29246052     0.14200
C436        C  0.39211652  0.22368987  0.27331205    -0.32400
H437        H  0.39488863  0.20117220  0.28325916     0.16100
C438        C  0.41547214  0.27112971  0.16301987    -0.31300
N439        N  0.43099320  0.24663216  0.15406690     0.12900
C440        C  0.41971497  0.22114484  0.16507175    -0.31300
C441        C  0.31927799  0.26488144  0.19813609    -0.31600
N442        N  0.30584924  0.23824346  0.19970422     0.13400
H443        H  0.31041841  0.28692495  0.20394425     0.16000
C444        C  0.32428167  0.21529899  0.19777491    -0.31600
H445        H  0.31996308  0.19210957  0.20350008     0.16000
H446        H  0.42772154  0.19814106  0.16226924     0.16000
H447        H  0.39305187  0.29702945  0.28065517     0.16100
H448        H  0.41949205  0.29464676  0.15819378     0.16000
C449        C  0.39554860  0.35499650  0.24241038    -0.02000
C450        C  0.37111380  0.37282457  0.23473571     0.07700
C451        C  0.35019010  0.36174157  0.20899261    -0.02100
C452        C  0.35244073  0.33187014  0.19428318    -0.02100
C453        C  0.37516595  0.31227929  0.20635872     0.07900
C454        C  0.39853597  0.32635356  0.22610801    -0.02300
Br455      Br  0.43503549  0.30671133  0.23295366    -0.00800
Br456      Br  0.42504067  0.36878315  0.27680424    -0.00900
Br457      Br  0.32864975  0.32155217  0.15224971    -0.00800
Br458      Br  0.31808244  0.38716228  0.19470843    -0.00800
C459        C  0.40063948  0.14624112  0.25559202    -0.02000
C460        C  0.37660424  0.12750872  0.24915775     0.07700
C461        C  0.35897450  0.13174561  0.21744364    -0.02100
C462        C  0.36253410  0.15730555  0.19719136    -0.02100
C463        C  0.38322075  0.17881854  0.20867004     0.07900
C464        C  0.40549641  0.16847231  0.23234705    -0.02300
Br465      Br  0.44115703  0.18835815  0.23724740    -0.00800
Br466      Br  0.42713312  0.14528108  0.29688253    -0.00900
Br467      Br  0.34328981  0.15978699  0.15094099    -0.00800
Br468      Br  0.33072483  0.10282766  0.20021186    -0.00800
C469        C  0.47922372  0.33461733  0.35737198    -0.02000
C470        C  0.46886683  0.31779444  0.38267802     0.07700
C471        C  0.44703560  0.33230997  0.39860703    -0.02100
C472        C  0.43836296  0.36285973  0.39114186    -0.02100
C473        C  0.45115506  0.37974833  0.36802427     0.07900
C474        C  0.47449037  0.36609359  0.35543904    -0.02300
Br475      Br  0.50186227  0.38849933  0.33620665    -0.00800
Br476      Br  0.48734236  0.31560143  0.31497548    -0.00900
Br477      Br  0.41035309  0.38230475  0.41495962    -0.00800
Br478      Br  0.42405304  0.30975297  0.42495103    -0.00800
C479        C  0.49170764  0.16225359  0.38503398    -0.02000
C480        C  0.47114827  0.18522208  0.38775946     0.07700
C481        C  0.44450695  0.17519772  0.39364143    -0.02100
C482        C  0.43684355  0.14460607  0.38687400    -0.02100
C483        C  0.45598059  0.12318502  0.37612728     0.07900
C484        C  0.48378206  0.13177520  0.37670701    -0.02300
Br485      Br  0.51122929  0.10134432  0.36777519    -0.00800
Br486      Br  0.52961341  0.16896099  0.40504228    -0.00900
Br487      Br  0.39901849  0.13295278  0.38892589    -0.00800
Br488      Br  0.41783733  0.20253402  0.41171485    -0.00800
C489        C  0.47574891  0.06485094  0.22005874    -0.02000
C490        C  0.47249284  0.03344947  0.22723483     0.07700
C491        C  0.46036589  0.01371798  0.19982955    -0.02100
C492        C  0.45579308  0.02492901  0.16631456    -0.02100
C493        C  0.46995609  0.05110831  0.16047173     0.07900
C494        C  0.46931564  0.07408671  0.18582557    -0.02300
Br495      Br  0.47188105  0.11585552  0.17342131    -0.00800
Br496      Br  0.48821122  0.09531909  0.25526899    -0.00900
Br497      Br  0.43893686  0.00109847  0.12746001    -0.00800
Br498      Br  0.45095983  0.97193720  0.20606848    -0.00800
C499        C  0.63700932  0.36161717  0.25792716    -0.02000
C500        C  0.61172786  0.37787275  0.25483874     0.07700
C501        C  0.58783444  0.36324866  0.26215468    -0.02100
C502        C  0.58956210  0.33315132  0.27430732    -0.02100
C503        C  0.61568406  0.31685426  0.27954200     0.07900
C504        C  0.63788067  0.33048703  0.26545589    -0.02300
Br505      Br  0.66267680  0.30668863  0.24025919    -0.00800
Br506      Br  0.67022063  0.38093321  0.24823023    -0.00900
Br507      Br  0.55424057  0.31291422  0.27197801    -0.00800
Br508      Br  0.55162756  0.38251740  0.24972668    -0.00800
C509        C  0.63639634  0.14611333  0.23640182    -0.02000
C510        C  0.62614981  0.12400477  0.25558151     0.07700
C511        C  0.61773283  0.13143060  0.28740410    -0.02100
C512        C  0.61719736  0.16210157  0.29882387    -0.02100
C513        C  0.62204491  0.18534190  0.27628844     0.07900
C514        C  0.63509906  0.17664141  0.24687237    -0.02300
Br515      Br  0.65198633  0.20515786  0.21954989    -0.00800
Br516      Br  0.64968758  0.13441082  0.19364918    -0.00900
Br517      Br  0.61607261  0.17024574  0.34687046    -0.00800
Br518      Br  0.60642751  0.09938178  0.31457219    -0.00800
C519        C  0.51750156  0.36788999  0.12373631    -0.02000
C520        C  0.54465313  0.37580362  0.11792937     0.07700
C521        C  0.55906347  0.35497245  0.09869686    -0.02100
C522        C  0.54845452  0.32557388  0.09008540    -0.02100
C523        C  0.52202214  0.31701297  0.09868058     0.07900
C524        C  0.50538407  0.34039487  0.11035573    -0.02300
Br525      Br  0.46588200  0.34040890  0.09638116    -0.00800
Br526      Br  0.49698449  0.39154033  0.15362934    -0.00900
Br527      Br  0.57148877  0.29745853  0.06699589    -0.00800
Br528      Br  0.59312825  0.36658360  0.08306597    -0.00800
C529        C  0.55466181  0.17905155  0.08442180    -0.02000
C530        C  0.52673427  0.18578281  0.09056102     0.07700
C531        C  0.50917035  0.16058803  0.09068542    -0.02100
C532        C  0.52095492  0.13087713  0.09506679    -0.02100
C533        C  0.55000964  0.12619022  0.09861202     0.07900
C534        C  0.56653681  0.14981899  0.09059286    -0.02300
Br535      Br  0.60571925  0.14246224  0.08993239    -0.00800
Br536      Br  0.57734069  0.20891758  0.06677506    -0.00900
Br537      Br  0.49760186  0.09583628  0.09290068    -0.00800
Br538      Br  0.46990912  0.16491283  0.07595484    -0.00800
C539        C  0.23906866  0.98827982  0.35299348    -0.02000
C540        C  0.22087054  0.48813216  0.32049638     0.07700
C541        C  0.23232805  0.48371961  0.28988384    -0.02100
C542        C  0.26056955  0.47594279  0.29069993    -0.02100
C543        C  0.27822211  0.47401057  0.32219026     0.07900
C544        C  0.26775858  0.98140992  0.35403116    -0.02300
Br545      Br  0.29242158  0.98311738  0.39685738    -0.00800
Br546      Br  0.22399996  0.99864682  0.39441202    -0.00900
Br547      Br  0.27574645  0.47004371  0.24830101    -0.00800
Br548      Br  0.20991614  0.49042390  0.24659985    -0.00800
C549        C  0.23992416  0.21737483  0.23296640    -0.02000
C550        C  0.22029921  0.21869332  0.20280192     0.07700
C551        C  0.22953297  0.22643943  0.17182854    -0.02100
C552        C  0.25758583  0.23374451  0.17132027    -0.02100
C553        C  0.27681251  0.23359063  0.20159581     0.07900
C554        C  0.26807914  0.22444358  0.23224818    -0.02300
Br555      Br  0.29481303  0.22242283  0.27321920    -0.00800
Br556      Br  0.22793497  0.20642493  0.27544831    -0.00900
Br557      Br  0.27021645  0.24394992  0.12903247    -0.00800
Br558      Br  0.20343014  0.22939040  0.13034324    -0.00800
C559        C  0.11644425  0.40974705  0.31716998    -0.02000
C560        C  0.12194713  0.43275286  0.29470136     0.07700
C561        C  0.13368580  0.42345826  0.26441599    -0.02100
C562        C  0.13452046  0.39283301  0.25425338    -0.02100
C563        C  0.12411919  0.37106936  0.27371040     0.07900
C564        C  0.11608314  0.37895410  0.30568860    -0.02300
Br565      Br  0.10468423  0.34734352  0.33330504    -0.00800
Br566      Br  0.11487202  0.41846743  0.36499445    -0.00900
Br567      Br  0.14788426  0.38041545  0.21167210    -0.00800
Br568      Br  0.14880188  0.45134799  0.23473210    -0.00800
C569        C  0.11435265  0.11862941  0.30166412    -0.02000
C570        C  0.11894469  0.12427255  0.26746181     0.07700
C571        C  0.12885649  0.09977310  0.24816868    -0.02100
C572        C  0.13370317  0.07080565  0.26242765    -0.02100
C573        C  0.12406998  0.06388779  0.29389185     0.07900
C574        C  0.11754275  0.08876803  0.31492375    -0.02300
Br575      Br  0.11925160  0.08350426  0.36355772    -0.00800
Br576      Br  0.10370973  0.15123821  0.33138442    -0.00900
Br577      Br  0.15312432  0.04085654  0.23682517    -0.00800
Br578      Br  0.13228801  0.10345662  0.20001318    -0.00800
C579        C  0.00828029  0.40798776  0.10935598    -0.02000
C580        C  0.02512283  0.43365197  0.10844378     0.07700
C581        C  0.05324077  0.42755698  0.10239036    -0.02100
C582        C  0.06584462  0.39865465  0.10883466    -0.02100
C583        C  0.04992722  0.37432166  0.11649839     0.07900
C584        C  0.02074712  0.37847772  0.11351192    -0.02300
Br585      Br  0.99789709  0.34316917  0.11246634    -0.00800
Br586      Br  0.96873965  0.41161443  0.09680245    -0.00900
Br587      Br  0.10542563  0.39298606  0.10992896    -0.00800
Br588      Br  0.07564912  0.45825762  0.08556368    -0.00800
C589        C  0.05881276  0.10276645  0.11193025    -0.02000
C590        C  0.05176463  0.12176482  0.13846851     0.07700
C591        C  0.03226877  0.11171441  0.15869754    -0.02100
C592        C  0.01886349  0.08339532  0.15158505    -0.02100
C593        C  0.02382094  0.06450985  0.12270006     0.07900
C594        C  0.04625517  0.07402048  0.10503724    -0.02300
Br595      Br  0.06610296  0.04658284  0.07695935    -0.00800
Br596      Br  0.08719160  0.11593664  0.08613626    -0.00900
Br597      Br  0.00055582  0.06859685  0.18805339    -0.00800
Br598      Br  0.02677180  0.13531997  0.19962272    -0.00800
C599        C  0.75683926  0.48220233  0.16823666    -0.02000
C600        C  0.77348763  0.47881445  0.20024265     0.07700
C601        C  0.76168134  0.46606624  0.22720777    -0.02100
C602        C  0.73308769  0.45977953  0.22329807    -0.02100
C603        C  0.71609494  0.46436499  0.19170379     0.07900
C604        C  0.72830786  0.47504094  0.16395575    -0.02300
Br605      Br  0.70520072  0.48299177  0.12106923    -0.00800
Br606      Br  0.77339610  0.49673407  0.13044777    -0.00900
Br607      Br  0.71644899  0.44815769  0.26247875    -0.00800
Br608      Br  0.78423235  0.45847616  0.27032165    -0.00800
C609        C  0.76114001  0.22328706  0.29766844    -0.02000
C610        C  0.77541055  0.22391496  0.33138610     0.07700
C611        C  0.76060140  0.23202984  0.35871031    -0.02100
C612        C  0.73199298  0.23990941  0.35211704    -0.02100
C613        C  0.71844096  0.24158590  0.31817881     0.07900
C614        C  0.73324958  0.23325030  0.29102083    -0.02300
Br615      Br  0.71596545  0.23773925  0.24446209    -0.00800
Br616      Br  0.78080307  0.21087549  0.26018643    -0.00900
Br617      Br  0.71101559  0.24883741  0.38909767    -0.00800
Br618      Br  0.77986100  0.23334755  0.40487738    -0.00800
C619        C  0.96916369  0.25992350  0.22398984    -0.02000
C620        C  0.97895634  0.28109436  0.25103612     0.07700
C621        C  0.98102800  0.31241616  0.24284548    -0.02100
C622        C  0.97507835  0.32058409  0.20819539    -0.02100
C623        C  0.97411433  0.29710680  0.18308421     0.07900
C624        C  0.96098128  0.27091340  0.19088772    -0.02300
Br625      Br  0.94362055  0.24556310  0.15358295    -0.00800
Br626      Br  0.97230009  0.21636445  0.22866525    -0.00900
Br627      Br  0.97473859  0.36228294  0.19449613    -0.00800
Br628      Br  0.99136086  0.34426136  0.27749306    -0.00800
C629        C  0.85133528  0.09945450  0.26867852    -0.02000
C630        C  0.86020171  0.12305944  0.24956785     0.07700
C631        C  0.86582221  0.11518703  0.21563467    -0.02100
C632        C  0.86724463  0.08414544  0.20430470    -0.02100
C633        C  0.86528220  0.06044724  0.22714701     0.07900
C634        C  0.85428481  0.06865046  0.25816441    -0.02300
Br635      Br  0.84174423  0.03848172  0.28727111    -0.00800
Br636      Br  0.83213193  0.10905652  0.30763858    -0.00900
Br637      Br  0.86565419  0.07463221  0.15597970    -0.00800
Br638      Br  0.87008027  0.14578302  0.18257930    -0.00800
C639        C  0.87457370  0.40605678  0.20957205    -0.02000
C640        C  0.87451592  0.43185745  0.23210046     0.07700
C641        C  0.86346556  0.42796112  0.26404728    -0.02100
C642        C  0.85634584  0.39921332  0.27389287    -0.02100
C643        C  0.86043779  0.37374301  0.25351103     0.07900
C644        C  0.86805790  0.37707503  0.22070686    -0.02300
Br645      Br  0.86832120  0.34145058  0.19090247    -0.00800
Br646      Br  0.88025531  0.40971083  0.16259350    -0.00900
Br647      Br  0.84231899  0.39360074  0.31697679    -0.00800
Br648      Br  0.85499494  0.46091716  0.29544352    -0.00800
C649        C  0.94060635  0.07534171  0.40830193    -0.02000
C650        C  0.96909990  0.06740256  0.40755275     0.07700
C651        C  0.98715923  0.09168211  0.40597463    -0.02100
C652        C  0.97646623  0.12093453  0.39534650    -0.02100
C653        C  0.94708176  0.12663983  0.38726316     0.07900
C654        C  0.92941931  0.10360703  0.39598857    -0.02300
Br655      Br  0.88939088  0.10833530  0.38981207    -0.00800
Br656      Br  0.91614085  0.04755960  0.42643698    -0.00900
Br657      Br  0.00315707  0.15274653  0.39429483    -0.00800
Br658      Br  0.02511696  0.08717928  0.42761318    -0.00800
C659        C  0.99268837  0.41200216  0.40045620    -0.02000
C660        C  0.97349311  0.43615541  0.40478748     0.07700
C661        C  0.94601908  0.42756871  0.40947699    -0.02100
C662        C  0.93684173  0.39749124  0.40211596    -0.02100
C663        C  0.95480854  0.37495083  0.39127541     0.07900
C664        C  0.98308284  0.38194972  0.39190296    -0.02300
Br665      Br  0.00878273  0.34984196  0.38231482    -0.00800
Br666      Br  0.03179978  0.41727133  0.41500082    -0.00900
Br667      Br  0.89870555  0.38749547  0.40466242    -0.00800
Br668      Br  0.91975109  0.45636842  0.42604636    -0.00800
C669        C  0.97821359  0.03422039  0.90485724     0.29900
C670        C  0.98021547  0.47145479  0.90181558     0.29900
C671        C  0.95578198  0.01813655  0.87969130    -0.06300
C672        C  0.00474417  0.01925110  0.89207805    -0.07100
C673        C  0.97802471  0.01838197  0.93922488    -0.07000
C674        C  0.95766326  0.48737417  0.87722907    -0.06300
C675        C  0.00625833  0.48690833  0.89072946    -0.07100
C676        C  0.97867770  0.48695670  0.93693067    -0.07000
C677        C  0.94525960  0.47819573  0.84511751    -0.32300
N678        N  0.93610307  0.50307800  0.82707639     0.14200
C679        C  0.94201112  0.02702348  0.84818348    -0.32400
H680        H  0.93985886  0.05010953  0.83907939     0.16100
C681        C  0.02660279  0.47817164  0.87089311    -0.31300
N682        N  0.03982706  0.50320679  0.86213999     0.12900
C683        C  0.02571485  0.02833750  0.87400302    -0.31300
C684        C  0.98656562  0.47730140  0.97010055    -0.31600
N685        N  0.99038478  0.00200825  0.99269717     0.13400
H686        H  0.99112779  0.45393163  0.97734264     0.16000
C687        C  0.98578890  0.02732921  0.97331078    -0.31600
H688        H  0.98958634  0.05049682  0.98271526     0.16000
H689        H  0.02986070  0.05135122  0.86748956     0.16000
H690        H  0.94458314  0.45493480  0.83520501     0.16100
H691        H  0.03043301  0.45531243  0.86165356     0.16000
Zr692      Zr  0.87466895  0.20173770  0.84014954     2.17500
O693        O  0.85812666  0.17737698  0.88793331    -0.51400
O694        O  0.86601802  0.15923190  0.79741208    -0.74600
O695        O  0.82300532  0.20563608  0.83684944    -0.81400
O696        O  0.95127073  0.17420579  0.85701163    -0.83200
O697        O  0.80991236  0.25502582  0.82556504    -0.78800
O698        O  0.90829502  0.16285490  0.86717763    -0.90400
O699        O  0.86448715  0.17732245  0.74438758    -0.76400
O700        O  0.85394134  0.23009611  0.79201903    -0.85900
O701        O  0.90810143  0.19919392  0.80151251    -0.85600
O702        O  0.86773705  0.25369869  0.86075316    -0.72300
O703        O  0.91592742  0.22610874  0.86930836    -0.84500
Zr704      Zr  0.92074728  0.30096489  0.80099451     2.26400
Zr705      Zr  0.84835663  0.28219857  0.81157960     2.06300
Zr706      Zr  0.94924428  0.22331501  0.82973261     2.10000
Zr707      Zr  0.88644682  0.22592690  0.75278247     1.78800
O708        O  0.98727456  0.23414280  0.87547232    -0.93300
O709        O  0.84466400  0.23393316  0.71164417    -0.41100
O710        O  0.92764161  0.24969781  0.78017198    -0.77700
O711        O  0.87998775  0.27733263  0.77141247    -0.96400
O712        O  0.88866284  0.30621102  0.84054514    -0.89700
O713        O  0.94206398  0.27451395  0.84998263    -0.92500
C714        C  0.86236562  0.15556196  0.76442685     1.01200
C715        C  0.93469441  0.15686984  0.86956040     1.14100
C716        C  0.80468575  0.22762892  0.83207722     1.04900
O717        O  0.80624119  0.29094623  0.77136996    -0.94700
O718        O  0.84733627  0.32856132  0.77753573    -0.90400
O719        O  0.89231188  0.34198539  0.77817255    -0.83600
C720        C  0.86629396  0.34604113  0.76969971     1.11600
O721        O  0.89450618  0.25876427  0.94036082    -0.96700
Zr722      Zr  0.90915923  0.27826205  0.88862002     1.88900
O723        O  0.94026583  0.34156945  0.83970419    -0.73300
O724        O  0.83053449  0.31596455  0.85380466    -0.52600
O725        O  0.87961316  0.31400615  0.91605330    -0.97300
O726        O  0.94963340  0.26803800  0.93110574    -0.54500
O727        O  0.93312675  0.32781049  0.89293487    -0.73800
C728        C  0.94213167  0.34628985  0.87223560     0.98500
O729        O  0.92048287  0.32580570  0.74643368    -0.62700
O730        O  0.98058139  0.18820242  0.80416957    -0.57500
O731        O  0.96960350  0.29240624  0.80282837    -0.94100
O732        O  0.97762321  0.24440073  0.78998289    -0.92600
O733        O  0.91425015  0.18783096  0.72624004    -0.92900
O734        O  0.89758257  0.24847846  0.70078432    -0.91700
C735        C  0.97762544  0.27254802  0.78242372     1.17300
H736        H  0.91294389  0.17846573  0.79537015     0.33300
H737        H  0.87320702  0.28819872  0.75105884     0.44100
H738        H  0.95932058  0.28360268  0.86031138     0.37700
H739        H  0.85447327  0.25363303  0.87680842     0.34100
H740        H  0.84685704  0.21972556  0.69217397     0.25900
H741        H  0.83874633  0.33599970  0.85101219     0.31900
H742        H  0.89204299  0.32331207  0.93552381     0.37800
H743        H  0.90960561  0.19065415  0.70124807     0.32200
H744        H  0.99684071  0.18530166  0.82201648     0.31100
H745        H  0.00404773  0.23380686  0.86392853     0.32800
H746        H  0.96496752  0.27925053  0.92344470     0.31800
H747        H  0.88831321  0.26882346  0.69963313     0.35800
H748        H  0.93467980  0.34173305  0.74889261     0.28500
H749        H  0.84421349  0.16251515  0.87729527     0.32700
H750        H  0.90485134  0.27048556  0.95976421     0.35600
H751        H  0.97134861  0.16820250  0.80145251     0.28200
H752        H  0.92560524  0.31009976  0.72986267     0.41100
H753        H  0.80874777  0.27795137  0.75103567     0.31100
H754        H  0.82952443  0.22521569  0.72234902     0.38700
H755        H  0.95431268  0.24623578  0.92725183     0.30600
H756        H  0.81056804  0.31876720  0.84497358     0.30700
H757        H  0.84727513  0.19337424  0.89868181     0.30900
C758        C  0.87743596  0.46543672  0.71973494     0.29900
C759        C  0.87064667  0.02757452  0.71898065     0.29900
C760        C  0.89293351  0.48371085  0.74941917    -0.06300
C761        C  0.89066016  0.47986284  0.68995162    -0.07100
C762        C  0.84797029  0.47832698  0.71334107    -0.07000
C763        C  0.88892828  0.01412677  0.75025796    -0.06300
C764        C  0.88666721  0.01269514  0.68971913    -0.07100
C765        C  0.84348574  0.00938440  0.71407618    -0.07000
C766        C  0.90609238  0.02518746  0.77888102    -0.32300
N767        N  0.92077875  0.50238343  0.79389153     0.14200
C768        C  0.91321519  0.47645855  0.77589255    -0.32400
H769        H  0.92068893  0.45365656  0.78233360     0.16100
C770        C  0.91052752  0.02191400  0.67659473    -0.31300
N771        N  0.92775507  0.49735568  0.66782159     0.12900
C772        C  0.91561590  0.47214741  0.67782125    -0.31300
C773        C  0.81475997  0.01512355  0.70925457    -0.31600
N774        N  0.80237523  0.48707798  0.70498670     0.13400
H775        H  0.80451264  0.03731039  0.70800223     0.16000
C776        C  0.82219590  0.46502239  0.70828117    -0.31600
H777        H  0.81806237  0.44083106  0.70769686     0.16000
H778        H  0.92560244  0.44987605  0.67964479     0.16000
H779        H  0.90839146  0.04885378  0.78713219     0.16100
H780        H  0.91749598  0.04516226  0.67678051     0.16000
C781        C  0.01482299  0.03006690  0.62019235     0.29900
C782        C  0.01743480  0.46732235  0.61524977     0.29900
C783        C  0.03902806  0.01340519  0.64150145    -0.06300
C784        C  0.98899399  0.01417435  0.63213187    -0.07100
C785        C  0.01307162  0.01536138  0.58402626    -0.07000
C786        C  0.04077672  0.48244086  0.63950955    -0.06300
C787        C  0.99180542  0.48200460  0.63093890    -0.07100
C788        C  0.01555360  0.48443069  0.58149070    -0.07000
C789        C  0.05533922  0.47274733  0.67023059    -0.32300
N790        N  0.06533517  0.49750125  0.68889548     0.14200
C791        C  0.05486577  0.02207003  0.67201576    -0.32400
H792        H  0.05766462  0.04514398  0.68197692     0.16100
C793        C  0.96904014  0.47282670  0.64593142    -0.31300
N794        N  0.95331654  0.49774686  0.65356499     0.12900
C795        C  0.96389203  0.02269065  0.64343775    -0.31300
C796        C  0.00602932  0.47597307  0.54786944    -0.31600
N797        N  0.99881451  0.00048167  0.52962885     0.13400
H798        H  0.00253209  0.45281600  0.53829214     0.16000
C799        C  0.00252492  0.02514501  0.55143462    -0.31600
H800        H  0.99708311  0.04845019  0.54462949     0.16000
H801        H  0.95542780  0.04563914  0.64450040     0.16000
H802        H  0.05662183  0.44958855  0.67913485     0.16100
H803        H  0.96452183  0.44969703  0.65150429     0.16000
Zr804      Zr  0.12181473  0.19817772  0.67972593     2.17500
O805        O  0.14184707  0.16643307  0.63745374    -0.51400
O806        O  0.12936797  0.16246779  0.72731715    -0.74600
O807        O  0.17377552  0.20223520  0.68903957    -0.81400
O808        O  0.04717023  0.17426907  0.64263136    -0.83200
O809        O  0.18471559  0.24589794  0.72043674    -0.78800
O810        O  0.09124770  0.15520527  0.65572825    -0.90400
O811        O  0.09677989  0.17187187  0.76188320    -0.76400
O812        O  0.12744864  0.22313177  0.73475270    -0.85900
O813        O  0.07714998  0.20104251  0.69808643    -0.85600
O814        O  0.13629167  0.24924313  0.66952146    -0.72300
O815        O  0.09209372  0.22645480  0.63594828    -0.84500
Zr816      Zr  0.06951191  0.30162806  0.70225990     2.26400
Zr817      Zr  0.14235450  0.27355959  0.72540234     2.06300
Zr818      Zr  0.04758939  0.22837471  0.65509761     2.10000
Zr819      Zr  0.08263258  0.22480359  0.75276817     1.78800
O820        O  0.03619316  0.23148075  0.59314975    -0.93300
O821        O  0.11282395  0.22886983  0.80759001    -0.41100
O822        O  0.05167003  0.25240127  0.71094141    -0.77700
O823        O  0.09859100  0.27467983  0.74559442    -0.96400
O824        O  0.11341279  0.30283433  0.68348884    -0.89700
O825        O  0.06222033  0.27811894  0.64686150    -0.92500
C826        C  0.11571758  0.15482584  0.75136562     1.01200
C827        C  0.06482454  0.15214451  0.64552125     1.14100
C828        C  0.19143758  0.22171974  0.70448823     1.04900
O829        O  0.16655132  0.26738123  0.78337882    -0.94700
O830        O  0.13737212  0.32164088  0.75614517    -0.90400
O831        O  0.09383239  0.34011450  0.73789496    -0.83600
C832        C  0.11791662  0.34193276  0.75547045     1.11600
O833        O  0.13447772  0.25832281  0.58657949    -0.96700
Zr834      Zr  0.10592190  0.27846131  0.62831343     1.88900
O835        O  0.06076768  0.34234222  0.66256138    -0.73300
O836        O  0.17674665  0.30858592  0.71086367    -0.52600
O837        O  0.14381254  0.31259026  0.62323191    -0.97300
O838        O  0.08160103  0.27242502  0.57008481    -0.54500
O839        O  0.08033519  0.32775132  0.61556718    -0.73800
C840        C  0.06536046  0.34620527  0.63190997     0.98500
O841        O  0.04869237  0.32658260  0.74804161    -0.62700
O842        O  0.00150473  0.20708129  0.65246190    -0.57500
O843        O  0.02178928  0.30832627  0.68127704    -0.94100
O844        O  0.00782710  0.26130991  0.66176208    -0.92600
O845        O  0.04185256  0.19683325  0.76245599    -0.92900
O846        O  0.05660882  0.24941701  0.79476395    -0.91700
C847        C  0.00298371  0.28894887  0.67155964     1.17300
H848        H  0.06998837  0.18137631  0.70187247     0.33300
H849        H  0.09954886  0.28545986  0.76746177     0.44100
H850        H  0.04814749  0.28826667  0.63114333     0.37700
H851        H  0.15353185  0.24852637  0.66071421     0.34100
H852        H  0.10184860  0.22102804  0.82462467     0.25900
H853        H  0.19292490  0.30617454  0.72898339     0.31900
H854        H  0.13754986  0.32382387  0.60199756     0.37800
H855        H  0.04699716  0.18762821  0.78518391     0.32200
H856        H  0.99730080  0.19715404  0.62949958     0.31100
H857        H  0.01697965  0.23992129  0.58951530     0.32800
H858        H  0.08909042  0.28853898  0.55709667     0.31800
H859        H  0.04080329  0.25994001  0.78093804     0.35800
H860        H  0.03683695  0.31065645  0.75520069     0.28500
H861        H  0.15573412  0.15307419  0.65095166     0.32700
H862        H  0.13887343  0.23700047  0.59336119     0.35600
H863        H  0.00347628  0.19018444  0.66877650     0.28200
H864        H  0.03586835  0.34205539  0.73637878     0.41100
H865        H  0.16842722  0.24503512  0.78624870     0.31100
H866        H  0.12763789  0.21325094  0.80609404     0.38700
H867        H  0.06228887  0.27932521  0.57151817     0.30600
H868        H  0.18297407  0.29963827  0.68983657     0.30700
H869        H  0.15293340  0.18053501  0.62596873     0.30900
C870        C  0.12002458  0.46715126  0.80196799     0.29900
C871        C  0.12115860  0.02978434  0.80191335     0.29900
C872        C  0.10609195  0.48249066  0.76963679    -0.06300
C873        C  0.10379824  0.48386765  0.82870729    -0.07100
C874        C  0.14860262  0.48103086  0.81048245    -0.07000
C875        C  0.10583273  0.01346312  0.76999588    -0.06300
C876        C  0.10402893  0.01701472  0.82950692    -0.07100
C877        C  0.14929212  0.01253771  0.80998105    -0.07000
C878        C  0.08927096  0.02246013  0.74054515    -0.32300
N879        N  0.08037663  0.49774311  0.72219660     0.14200
C880        C  0.08900314  0.47286198  0.74051577    -0.32400
H881        H  0.08356682  0.44955808  0.73321885     0.16100
C882        C  0.07886241  0.02693625  0.84005741    -0.31300
N883        N  0.06471157  0.50251496  0.84684512     0.12900
C884        C  0.07839033  0.47680911  0.83828350    -0.31300
C885        C  0.17748512  0.01929643  0.81583032    -0.31600
N886        N  0.19327234  0.49213378  0.82072490     0.13400
H887        H  0.18634720  0.04167091  0.81539447     0.16000
C888        C  0.17513696  0.46903339  0.81752837    -0.31600
H889        H  0.18096695  0.44505340  0.81836262     0.16000
H890        H  0.06939322  0.45443181  0.83608419     0.16000
H891        H  0.08507924  0.04572854  0.73276488     0.16100
H892        H  0.07071276  0.05008210  0.83907631     0.16000
C893        C  0.51648400  0.28316220  0.59771612     0.29900
C894        C  0.51977261  0.22032922  0.59378595     0.29900
C895        C  0.54109158  0.26792657  0.61994297    -0.06300
C896        C  0.49179005  0.26630281  0.61079181    -0.07100
C897        C  0.51590482  0.26852887  0.56191521    -0.07000
C898        C  0.54259710  0.23644910  0.61809768    -0.06300
C899        C  0.49343824  0.23379025  0.60866160    -0.07100
C900        C  0.51795707  0.23698961  0.56012215    -0.07000
C901        C  0.55833074  0.22696336  0.64802642    -0.32300
N902        N  0.56703497  0.25180074  0.66747053     0.14200
C903        C  0.55593798  0.27690611  0.65112940    -0.32400
H904        H  0.55640702  0.29978613  0.66223237     0.16100
C905        C  0.47191174  0.22327896  0.62491673    -0.31300
N906        N  0.45675269  0.24747784  0.63536556     0.12900
C907        C  0.46938083  0.27351769  0.62818440    -0.31300
C908        C  0.50804606  0.22795404  0.52696298    -0.31600
N909        N  0.50082259  0.25311284  0.50831895     0.13400
H910        H  0.50463177  0.20463432  0.51793918     0.16000
C911        C  0.50459907  0.27799070  0.52964071    -0.31600
H912        H  0.49792358  0.30101258  0.52295181     0.16000
H913        H  0.46365335  0.29586480  0.63712690     0.16000
H914        H  0.56134860  0.20357341  0.65592842     0.16100
H915        H  0.46831686  0.19984463  0.63031030     0.16000
Zr916      Zr  0.61523854  0.44980128  0.66657097     2.17500
O917        O  0.63647219  0.41718028  0.62607707    -0.51400
O918        O  0.61754082  0.41120728  0.71073720    -0.74600
O919        O  0.66726935  0.45086425  0.67832481    -0.81400
O920        O  0.53906192  0.42941365  0.62739313    -0.83200
O921        O  0.67815729  0.99510992  0.70755734    -0.78800
O922        O  0.58272525  0.40954913  0.64005423    -0.90400
O923        O  0.59456659  0.42918422  0.75370665    -0.76400
O924        O  0.62235166  0.47602087  0.72107650    -0.85900
O925        O  0.57088254  0.45480168  0.68545570    -0.85600
O926        O  0.63254136  0.00043345  0.65368170    -0.72300
O927        O  0.58672913  0.47844828  0.62225229    -0.84500
Zr928      Zr  0.56558589  0.05599019  0.68210342     2.26400
Zr929      Zr  0.63706059  0.02532086  0.70912678     2.06300
Zr930      Zr  0.54245530  0.48294561  0.64193102     2.10000
Zr931      Zr  0.57790813  0.48033885  0.73955525     1.78800
O932        O  0.52846531  0.48398875  0.58017296    -0.93300
O933        O  0.60474645  0.48725542  0.79629731    -0.41100
O934        O  0.54791390  0.50801269  0.69703246    -0.77700
O935        O  0.59249742  0.02877617  0.72706856    -0.96400
O936        O  0.61058968  0.05549027  0.66614786    -0.89700
O937        O  0.56020276  0.03265837  0.62651552    -0.92500
C938        C  0.60792877  0.40821523  0.73924322     1.01200
C939        C  0.55637688  0.40699177  0.62901547     1.14100
C940        C  0.68533715  0.47025506  0.69295558     1.04900
O941        O  0.65926266  0.01867747  0.76789358    -0.94700
O942        O  0.63301445  0.07334639  0.73970375    -0.90400
O943        O  0.59154900  0.09420276  0.71665159    -0.83600
C944        C  0.61469913  0.09485049  0.73647153     1.11600
O945        O  0.63441580  0.00724385  0.57218663    -0.96700
Zr946      Zr  0.60521363  0.03098092  0.61119563     1.88900
O947        O  0.56048215  0.09662594  0.64286426    -0.73300
O948        O  0.67320394  0.05844798  0.69524854    -0.52600
O949        O  0.64657612  0.06168905  0.61406973    -0.97300
O950        O  0.58649946  0.02990465  0.55038033    -0.54500
O951        O  0.58144716  0.08096016  0.59727863    -0.73800
C952        C  0.56634115  0.09994655  0.61274242     0.98500
O953        O  0.53983491  0.08117386  0.72343305    -0.62700
O954        O  0.49643221  0.46681577  0.64903965    -0.57500
O955        O  0.51780777  0.06246288  0.66029763    -0.94100
O956        O  0.50299807  0.51708497  0.64477483    -0.92600
O957        O  0.53566872  0.45410727  0.74654014    -0.92900
O958        O  0.55245831  0.50498983  0.78205361    -0.91700
C959        C  0.49914980  0.04241060  0.65309896     1.17300
H960        H  0.56295716  0.43539033  0.68897120     0.33300
H961        H  0.59302232  0.03959771  0.74863825     0.44100
H962        H  0.54695139  0.04336243  0.61025667     0.37700
H963        H  0.65053250  0.99856355  0.64601432     0.34100
H964        H  0.59782968  0.47161046  0.81041126     0.25900
H965        H  0.68776449  0.05798496  0.71555222     0.31900
H966        H  0.64073407  0.07912067  0.59914827     0.37800
H967        H  0.53887097  0.44732068  0.77051996     0.32200
H968        H  0.49003273  0.45359374  0.62881111     0.31100
H969        H  0.51617826  0.50228023  0.57662236     0.32800
H970        H  0.59621558  0.04635864  0.54049828     0.31800
H971        H  0.53799292  0.02438439  0.75715905     0.35800
H972        H  0.55138638  0.07904491  0.74608801     0.28500
H973        H  0.64869916  0.40271408  0.64035728     0.32700
H974        H  0.62906345  0.98552448  0.57048712     0.35600
H975        H  0.49981363  0.45321222  0.66882232     0.28200
H976        H  0.53987691  0.10320788  0.71857597     0.41100
H977        H  0.64435490  0.02306049  0.78207895     0.31100
H978        H  0.62375805  0.48008490  0.79359346     0.38700
H979        H  0.56713845  0.03765152  0.54929784     0.30600
H980        H  0.68159649  0.04735685  0.67692366     0.30700
H981        H  0.64925860  0.43046738  0.61613881     0.30900
C982        C  0.61544555  0.21875309  0.78325673     0.29900
C983        C  0.61603951  0.28148048  0.78616636     0.29900
C984        C  0.60362186  0.23496259  0.75056882    -0.06300
C985        C  0.59719293  0.23377210  0.80842479    -0.07100
C986        C  0.64348336  0.23315345  0.79523948    -0.07000
C987        C  0.60520485  0.26614967  0.75133528    -0.06300
C988        C  0.59787732  0.26600659  0.81094940    -0.07100
C989        C  0.64461672  0.26474843  0.79742860    -0.07000
C990        C  0.59242375  0.27595694  0.71971046    -0.32300
N991        N  0.58225022  0.25132167  0.70076566     0.14200
C992        C  0.58853559  0.22613984  0.71963205    -0.32400
H993        H  0.58252152  0.20311729  0.71178411     0.16100
C994        C  0.57807796  0.27469807  0.83188991    -0.31300
N995        N  0.56374486  0.24963448  0.83865289     0.12900
C996        C  0.57495306  0.22487276  0.82378182    -0.31300
C997        C  0.67245923  0.27086085  0.81029849    -0.31600
N998        N  0.68730868  0.24396268  0.81399595     0.13400
H999        H  0.68143386  0.29318553  0.81527526     0.16000
C1000       C  0.66949409  0.22100660  0.80553016    -0.31600
H1001       H  0.67533321  0.19702099  0.80561907     0.16000
H1002       H  0.56635900  0.20229307  0.82199878     0.16000
H1003       H  0.58979105  0.29934163  0.71168832     0.16100
H1004       H  0.57302226  0.29789193  0.83917247     0.16000
C1005       C  0.47396282  0.28149029  0.88586351     0.29900
C1006       C  0.47517003  0.21866079  0.88646457     0.29900
C1007       C  0.45026671  0.26522919  0.86331192    -0.06300
C1008       C  0.50045693  0.26565337  0.87467902    -0.07100
C1009       C  0.47434896  0.26726136  0.92118776    -0.07000
C1010       C  0.45112236  0.23386478  0.86320190    -0.06300
C1011       C  0.50050499  0.23351260  0.87329058    -0.07100
C1012       C  0.47477407  0.23534027  0.92119002    -0.07000
C1013       C  0.43072487  0.22401429  0.83770355    -0.32300
N1014       N  0.41715282  0.24865321  0.82270400     0.15000
C1015       C  0.42901042  0.27409584  0.83826174    -0.32400
H1016       H  0.42419926  0.29722557  0.83026703     0.16100
C1017       C  0.52375010  0.22458909  0.85841406    -0.31300
N1018       N  0.53902562  0.24957978  0.85415630     0.12900
C1019       C  0.52538218  0.27459011  0.86506594    -0.31300
C1020       C  0.48466534  0.22671224  0.95400564    -0.31600
N1021       N  0.48964079  0.25209158  0.97423181     0.13400
H1022       H  0.48975267  0.20357880  0.96175533     0.16000
C1023       C  0.48450161  0.27692359  0.95429525    -0.31600
H1024       H  0.48947669  0.30014849  0.96253041     0.16000
H1025       H  0.53244645  0.29777049  0.86479291     0.16000
H1026       H  0.42734416  0.20060502  0.82952416     0.16100
H1027       H  0.52866428  0.20167204  0.85020823     0.16000
Zr1028     Zr  0.37857634  0.45038704  0.82497697     2.17500
O1029       O  0.36476188  0.42330721  0.87272953    -0.51400
O1030       O  0.36935827  0.40714483  0.78283139    -0.74600
O1031       O  0.32782162  0.45567903  0.82667708    -0.81400
O1032       O  0.45603745  0.42576167  0.84273609    -0.83200
O1033       O  0.31481460  0.00721336  0.81736692    -0.78800
O1034       O  0.41288284  0.41188360  0.85075715    -0.90400
O1035       O  0.37583820  0.42492444  0.73116771    -0.76400
O1036       O  0.35528610  0.48201776  0.78042022    -0.85900
O1037       O  0.41008573  0.44967771  0.78364125    -0.85600
O1038       O  0.37271285  0.00207678  0.84732272    -0.72300
O1039       O  0.42142949  0.47192055  0.85297420    -0.84500
Zr1040     Zr  0.42532792  0.05019923  0.78883018     2.26400
Zr1041     Zr  0.35262695  0.03409578  0.80058058     2.06300
Zr1042     Zr  0.45218591  0.47184757  0.81053904     2.10000
Zr1043     Zr  0.38566337  0.47945817  0.73915210     1.78800
O1044       O  0.49547749  0.47900144  0.84909298    -0.93300
O1045       O  0.33645077  0.48796944  0.71954718    -0.41100
O1046       O  0.42479450  0.50038606  0.77088407    -0.77700
O1047       O  0.38270244  0.03066955  0.75792784    -0.96400
O1048       O  0.39477154  0.05345888  0.83033921    -0.89700
O1049       O  0.44768851  0.02112534  0.83526979    -0.92500
C1050       C  0.37109282  0.40319299  0.75054837     1.01200
C1051       C  0.43954023  0.40747810  0.85390205     1.14100
C1052       C  0.30970926  0.47786912  0.82286079     1.04900
O1053       O  0.30907815  0.04325482  0.76316031    -0.94700
O1054       O  0.35495012  0.08171659  0.76760494    -0.90400
O1055       O  0.39603164  0.09384704  0.79408516    -0.83600
C1056       C  0.37590873  0.09954877  0.77105549     1.11600
O1057       O  0.40692205  0.99478864  0.92536362    -0.96700
Zr1058     Zr  0.41583025  0.02248505  0.87553610     1.88900
O1059       O  0.44898750  0.08586963  0.83062734    -0.73300
O1060       O  0.33803209  0.07017547  0.84298631    -0.52600
O1061       O  0.38883268  0.05219648  0.91262868    -0.97300
O1062       O  0.45877175  0.01331122  0.91430921    -0.54500
O1063       O  0.43583676  0.07354287  0.88151698    -0.73800
C1064       C  0.44704461  0.09146658  0.86234383     0.98500
O1065       O  0.42685730  0.07450723  0.73444606    -0.62700
O1066       O  0.47370693  0.43515645  0.77445619    -0.57500
O1067       O  0.47332372  0.03921971  0.78761708    -0.94100
O1068       O  0.47993398  0.49308481  0.77053764    -0.92600
O1069       O  0.39422394  0.45506026  0.68517440    -0.92900
O1070       O  0.39522374  0.50736772  0.68972327    -0.91700
C1071       C  0.47914736  0.02072004  0.76450475     1.17300
H1072       H  0.41530351  0.42982103  0.77612161     0.33300
H1073       H  0.37593280  0.04247211  0.73810200     0.44100
H1074       H  0.46538082  0.02910573  0.84560911     0.37700
H1075       H  0.36015625  0.00152375  0.86407100     0.34100
H1076       H  0.33570666  0.49638326  0.69640240     0.25900
H1077       H  0.34378979  0.09034850  0.83615287     0.31900
H1078       H  0.36984316  0.05320222  0.89974860     0.37800
H1079       H  0.37557196  0.45169489  0.67197112     0.32200
H1080       H  0.49343897  0.43370030  0.78516837     0.31100
H1081       H  0.50994827  0.47919472  0.83385055     0.32800
H1082       H  0.47205997  0.02829322  0.90823323     0.31800
H1083       H  0.38358425  0.01971683  0.68205808     0.35800
H1084       H  0.43123894  0.09605566  0.74005601     0.28500
H1085       H  0.34995787  0.40934879  0.86240982     0.32700
H1086       H  0.41170680  0.97323673  0.92016019     0.35600
H1087       H  0.46583963  0.41530996  0.77810951     0.28200
H1088       H  0.40776698  0.07488468  0.72186453     0.41100
H1089       H  0.29904796  0.05888651  0.77555488     0.31100
H1090       H  0.32903000  0.46715808  0.71517733     0.38700
H1091       H  0.46583353  0.99332594  0.90653970     0.30600
H1092       H  0.31750550  0.07084804  0.83806046     0.30700
H1093       H  0.35530931  0.43880084  0.88599855     0.30900
C1094       C  0.38082915  0.21238899  0.70297058     0.29900
C1095       C  0.37589621  0.27546284  0.70213139     0.29900
C1096       C  0.38669991  0.22975914  0.73780610    -0.06300
C1097       C  0.39931186  0.22862428  0.68040186    -0.07100
C1098       C  0.35132290  0.22514501  0.69054844    -0.07000
C1099       C  0.38475490  0.26125485  0.73734988    -0.06300
C1100       C  0.39659088  0.26034141  0.67962595    -0.07100
C1101       C  0.34832786  0.25760862  0.69052543    -0.07000
C1102       C  0.39240433  0.27189911  0.77074587    -0.32300
N1103       N  0.39948922  0.24771679  0.79096530     0.14200
C1104       C  0.39420608  0.22205779  0.77155626    -0.32400
H1105       H  0.39691963  0.19948529  0.78140119     0.16100
C1106       C  0.41682886  0.27036097  0.66106418    -0.31300
N1107       N  0.43239662  0.24602370  0.65173626     0.12900
C1108       C  0.42137050  0.22037219  0.66277812    -0.31300
C1109       C  0.32106952  0.26338074  0.69694251    -0.31600
N1110       N  0.30762997  0.23674452  0.69825384     0.13400
H1111       H  0.31220751  0.28535054  0.70301069     0.16000
C1112       C  0.32609607  0.21378883  0.69627639    -0.31600
H1113       H  0.32178561  0.19055887  0.70184924     0.16000
H1114       H  0.42951341  0.19744880  0.65980183     0.16000
H1115       H  0.39425519  0.29542866  0.77944785     0.16100
H1116       H  0.42069170  0.29394188  0.65635235     0.16000
C1117       C  0.39649332  0.35377652  0.74210127    -0.02000
C1118       C  0.37176634  0.37130049  0.73537212     0.07700
C1119       C  0.35084291  0.36031838  0.70953431    -0.02100
C1120       C  0.35327948  0.33065759  0.69419813    -0.02100
C1121       C  0.37633859  0.31117168  0.70551549     0.07900
C1122       C  0.39964363  0.32540774  0.72518114    -0.02300
Br1123     Br  0.43635522  0.30633890  0.73087610    -0.00800
Br1124     Br  0.42644226  0.36784130  0.77560596    -0.00900
Br1125     Br  0.32936895  0.32084800  0.65209543    -0.00800
Br1126     Br  0.31886241  0.38597635  0.69530702    -0.00800
C1127       C  0.40314129  0.14446895  0.75360686    -0.02000
C1128       C  0.37902496  0.12576620  0.74746137     0.07700
C1129       C  0.36124642  0.13004585  0.71586707    -0.02100
C1130       C  0.36461769  0.15570062  0.69559929    -0.02100
C1131       C  0.38529871  0.17731354  0.70689761     0.07900
C1132       C  0.40772053  0.16692198  0.73039397    -0.02300
Br1133     Br  0.44327115  0.18699833  0.73502288    -0.00800
Br1134     Br  0.42999416  0.14343181  0.79468163    -0.00900
Br1135     Br  0.34513707  0.15811106  0.64946966    -0.00800
Br1136     Br  0.33294274  0.10108291  0.69893198    -0.00800
C1137       C  0.47883296  0.33244031  0.85726980    -0.02000
C1138       C  0.46853543  0.31617803  0.88305708     0.07700
C1139       C  0.44712425  0.33109964  0.89920129    -0.02100
C1140       C  0.43939126  0.36192728  0.89237447    -0.02100
C1141       C  0.45216752  0.37832224  0.86883114     0.07900
C1142       C  0.47467533  0.36394942  0.85513873    -0.02300
Br1143     Br  0.50105212  0.38523617  0.83290278    -0.00800
Br1144     Br  0.48616044  0.31269646  0.81480915    -0.00900
Br1145     Br  0.41259968  0.38220903  0.91743071    -0.00800
Br1146     Br  0.42306630  0.30860632  0.92417812    -0.00800
C1147       C  0.49152566  0.16143255  0.88653996    -0.02000
C1148       C  0.47060195  0.18395783  0.88881854     0.07700
C1149       C  0.44408134  0.17350159  0.89443415    -0.02100
C1150       C  0.43684589  0.14281994  0.88733937    -0.02100
C1151       C  0.45638271  0.12182333  0.87664035     0.07900
C1152       C  0.48413355  0.13086396  0.87793275    -0.02300
Br1153     Br  0.51224882  0.10093698  0.87003641    -0.00800
Br1154     Br  0.52886705  0.16897854  0.90814104    -0.00900
Br1155     Br  0.39932174  0.13031452  0.88967872    -0.00800
Br1156     Br  0.41738747  0.20029009  0.91315715    -0.00800
C1157       C  0.47906589  0.06288769  0.72234064    -0.02000
C1158       C  0.47592640  0.03129755  0.72885252     0.07700
C1159       C  0.46406984  0.01184172  0.70103219    -0.02100
C1160       C  0.45725923  0.02425798  0.66835479    -0.02100
C1161       C  0.47134000  0.05031086  0.66214351     0.07900
C1162       C  0.47279779  0.07269069  0.68834585    -0.02300
Br1163     Br  0.47412055  0.11480624  0.67659200    -0.00800
Br1164     Br  0.48997111  0.09327813  0.75837249    -0.00900
Br1165     Br  0.43851738  0.00160881  0.62968037    -0.00800
Br1166     Br  0.45906395  0.96861642  0.70473934    -0.00800
C1167       C  0.63622816  0.36176778  0.75918858    -0.02000
C1168       C  0.61080517  0.37784316  0.75554539     0.07700
C1169       C  0.58691541  0.36281877  0.76220350    -0.02100
C1170       C  0.58868602  0.33256169  0.77405637    -0.02100
C1171       C  0.61491011  0.31644709  0.78001363     0.07900
C1172       C  0.63738054  0.33057728  0.76693989    -0.02300
Br1173     Br  0.66392559  0.30725721  0.74404666    -0.00800
Br1174     Br  0.66941005  0.38165158  0.75033881    -0.00900
Br1175     Br  0.55345770  0.31191986  0.77055814    -0.00800
Br1176     Br  0.55071742  0.38188293  0.74934923    -0.00800
C1177       C  0.63290353  0.14552228  0.73551174    -0.02000
C1178       C  0.62133301  0.12373538  0.75383705     0.07700
C1179       C  0.61316101  0.13104045  0.78584783    -0.02100
C1180       C  0.61409213  0.16151355  0.79808727    -0.02100
C1181       C  0.61988051  0.18471495  0.77606795     0.07900
C1182       C  0.63295904  0.17583480  0.74682225    -0.02300
Br1183     Br  0.65145058  0.20386908  0.72075843    -0.00800
Br1184     Br  0.64680505  0.13378127  0.69316677    -0.00900
Br1185     Br  0.61492443  0.16910352  0.84659026    -0.00800
Br1186     Br  0.60066315  0.09926409  0.81238072    -0.00800
C1187       C  0.51748801  0.36808790  0.62251764    -0.02000
C1188       C  0.54466796  0.37644598  0.61723847     0.07700
C1189       C  0.55935537  0.35629657  0.59763575    -0.02100
C1190       C  0.54933710  0.32672809  0.58885505    -0.02100
C1191       C  0.52307711  0.31754582  0.59735907     0.07900
C1192       C  0.50589822  0.34048402  0.60870838    -0.02300
Br1193     Br  0.46668052  0.33991926  0.59276733    -0.00800
Br1194     Br  0.49620925  0.39120980  0.65200726    -0.00900
Br1195     Br  0.57272727  0.29947192  0.56533225    -0.00800
Br1196     Br  0.59270128  0.36938612  0.58131371    -0.00800
C1197       C  0.55764280  0.18072160  0.58273079    -0.02000
C1198       C  0.52947286  0.18680472  0.58841063     0.07700
C1199       C  0.51222758  0.16137542  0.58788173    -0.02100
C1200       C  0.52432667  0.13187134  0.59218311    -0.02100
C1201       C  0.55347977  0.12749614  0.59572016     0.07900
C1202       C  0.56983997  0.15156821  0.58847209    -0.02300
Br1203     Br  0.60923580  0.14507055  0.58879782    -0.00800
Br1204     Br  0.58032917  0.21149457  0.56663457    -0.00900
Br1205     Br  0.50098900  0.09694107  0.59124731    -0.00800
Br1206     Br  0.47301133  0.16530643  0.57254163    -0.00800
C1207       C  0.23930734  0.98499770  0.85354523    -0.02000
C1208       C  0.22283074  0.48744290  0.82208196     0.07700
C1209       C  0.23424135  0.48270933  0.79147857    -0.02100
C1210       C  0.26230174  0.47427008  0.79233089    -0.02100
C1211       C  0.27999265  0.47278877  0.82378309     0.07900
C1212       C  0.26814577  0.97911080  0.85462854    -0.02300
Br1213     Br  0.29224486  0.97896328  0.89785886    -0.00800
Br1214     Br  0.22320144  0.99027049  0.89516616    -0.00900
Br1215     Br  0.27723713  0.46679727  0.74999489    -0.00800
Br1216     Br  0.21231551  0.49044872  0.74817245    -0.00800
C1217       C  0.24138950  0.21754832  0.73190391    -0.02000
C1218       C  0.22168319  0.21918703  0.70180138     0.07700
C1219       C  0.23088269  0.22740813  0.67094401    -0.02100
C1220       C  0.25909327  0.23389629  0.67025760    -0.02100
C1221       C  0.27855771  0.23238786  0.70023376     0.07900
C1222       C  0.26975059  0.22347217  0.73091185    -0.02300
Br1223     Br  0.29665796  0.22054348  0.77163791    -0.00800
Br1224     Br  0.22921681  0.20874392  0.77494121    -0.00900
Br1225     Br  0.27153443  0.24519914  0.62821438    -0.00800
Br1226     Br  0.20449227  0.23278590  0.63008329    -0.00800
C1227       C  0.11675164  0.40961769  0.81628213    -0.02000
C1228       C  0.12357566  0.43272140  0.79469672     0.07700
C1229       C  0.13547629  0.42338526  0.76453353    -0.02100
C1230       C  0.13510834  0.39295491  0.75339334    -0.02100
C1231       C  0.12422230  0.37121145  0.77243099     0.07900
C1232       C  0.11580839  0.37899154  0.80422130    -0.02300
Br1233     Br  0.10254197  0.34751910  0.83054135    -0.00800
Br1234     Br  0.11387022  0.41771848  0.86388514    -0.00900
Br1235     Br  0.14701501  0.38101156  0.70977014    -0.00800
Br1236     Br  0.15216665  0.45102991  0.73613968    -0.00800
C1237       C  0.11721649  0.11863028  0.80161977    -0.02000
C1238       C  0.12151932  0.12404742  0.76727495     0.07700
C1239       C  0.13117026  0.09934475  0.74799314    -0.02100
C1240       C  0.13509938  0.07021288  0.76208324    -0.02100
C1241       C  0.12532908  0.06361542  0.79357773     0.07900
C1242       C  0.11942545  0.08869007  0.81471243    -0.02300
Br1243     Br  0.12027305  0.08335987  0.86322219    -0.00800
Br1244     Br  0.10939213  0.15192927  0.83211360    -0.00900
Br1245     Br  0.15354924  0.03958845  0.73623094    -0.00800
Br1246     Br  0.13658438  0.10325713  0.70044664    -0.00800
C1247       C  0.01017843  0.40772997  0.60921819    -0.02000
C1248       C  0.02706597  0.43352249  0.60932776     0.07700
C1249       C  0.05512313  0.42758387  0.60282597    -0.02100
C1250       C  0.06766018  0.39845126  0.60809433    -0.02100
C1251       C  0.05177892  0.37401578  0.61554686     0.07900
C1252       C  0.02261144  0.37811592  0.61232850    -0.02300
Br1253     Br  0.99991403  0.34248165  0.60871882    -0.00800
Br1254     Br  0.97065523  0.41157995  0.59682437    -0.00900
Br1255     Br  0.10692268  0.39228886  0.60687893    -0.00800
Br1256     Br  0.07735275  0.45859026  0.58629483    -0.00800
C1257       C  0.05861522  0.10259362  0.61169775    -0.02000
C1258       C  0.05246101  0.12131105  0.63890986     0.07700
C1259       C  0.03294738  0.11147593  0.65924178    -0.02100
C1260       C  0.01893478  0.08351114  0.65188927    -0.02100
C1261       C  0.02364805  0.06444199  0.62304493     0.07900
C1262       C  0.04586580  0.07390371  0.60494857    -0.02300
Br1263     Br  0.06514804  0.04660965  0.57617417    -0.00800
Br1264     Br  0.08574413  0.11634698  0.58438518    -0.00900
Br1265     Br  0.99947475  0.06954566  0.68767544    -0.00800
Br1266     Br  0.02786530  0.13507774  0.70029073    -0.00800
C1267       C  0.75633015  0.48306519  0.66901404    -0.02000
C1268       C  0.77292870  0.48093100  0.70121708     0.07700
C1269       C  0.76114538  0.46904172  0.72868374    -0.02100
C1270       C  0.73275586  0.46163738  0.72466409    -0.02100
C1271       C  0.71567258  0.46564624  0.69302795     0.07900
C1272       C  0.72779341  0.47593838  0.66502131    -0.02300
Br1273     Br  0.70473336  0.48271195  0.62184173    -0.00800
Br1274     Br  0.77314709  0.49525282  0.63039768    -0.00900
Br1275     Br  0.71655998  0.44786519  0.76325756    -0.00800
Br1276     Br  0.78349322  0.46396206  0.77245283    -0.00800
C1277       C  0.75925190  0.22206505  0.79679212    -0.02000
C1278       C  0.77452052  0.22244818  0.82997166     0.07700
C1279       C  0.76055960  0.23003787  0.85822869    -0.02100
C1280       C  0.73171899  0.23721962  0.85310673    -0.02100
C1281       C  0.71710078  0.23903906  0.81966546     0.07900
C1282       C  0.73119148  0.23157225  0.79162390    -0.02300
Br1283     Br  0.71299698  0.23766430  0.74583090    -0.00800
Br1284     Br  0.77789266  0.21144389  0.75785273    -0.00900
Br1285     Br  0.71212276  0.24580888  0.89140267    -0.00800
Br1286     Br  0.78144445  0.23269782  0.90350199    -0.00800
C1287       C  0.96779610  0.26031825  0.71907470    -0.02000
C1288       C  0.97746468  0.28127718  0.74641890     0.07700
C1289       C  0.97999252  0.31261620  0.73842911    -0.02100
C1290       C  0.97510188  0.32088076  0.70375350    -0.02100
C1291       C  0.97468840  0.29735173  0.67875454     0.07900
C1292       C  0.96079070  0.27144192  0.68583423    -0.02300
Br1293     Br  0.94360281  0.24660450  0.64799076    -0.00800
Br1294     Br  0.96908172  0.21672347  0.72380843    -0.00900
Br1295     Br  0.97744764  0.36244481  0.69038865    -0.00800
Br1296     Br  0.98988157  0.34438298  0.77327932    -0.00800
C1297       C  0.84965602  0.10038734  0.76833727    -0.02000
C1298       C  0.85754844  0.12397552  0.74854074     0.07700
C1299       C  0.86228417  0.11621347  0.71429169    -0.02100
C1300       C  0.86476725  0.08520194  0.70340632    -0.02100
C1301       C  0.86362490  0.06160663  0.72667403     0.07900
C1302       C  0.85282109  0.06966655  0.75791101    -0.02300
Br1303     Br  0.84099889  0.03951997  0.78768176    -0.00800
Br1304     Br  0.83166471  0.10990633  0.80837595    -0.00900
Br1305     Br  0.86427442  0.07548139  0.65527630    -0.00800
Br1306     Br  0.86326949  0.14694120  0.68028152    -0.00800
C1307       C  0.87333708  0.40678784  0.70810915    -0.02000
C1308       C  0.87377657  0.43245495  0.73089832     0.07700
C1309       C  0.86299584  0.42850817  0.76298282    -0.02100
C1310       C  0.85600570  0.39975522  0.77289438    -0.02100
C1311       C  0.85920655  0.37438994  0.75195918     0.07900
C1312       C  0.86640452  0.37786533  0.71897812    -0.02300
Br1313     Br  0.86610399  0.34239945  0.68884334    -0.00800
Br1314     Br  0.87927127  0.41055063  0.66124408    -0.00900
Br1315     Br  0.84374664  0.39405899  0.81698288    -0.00800
Br1316     Br  0.85468550  0.46137367  0.79452662    -0.00800
C1317       C  0.94170050  0.07703264  0.90985091    -0.02000
C1318       C  0.96970460  0.06868011  0.90649583     0.07700
C1319       C  0.98761133  0.09268864  0.90320888    -0.02100
C1320       C  0.97668789  0.12175260  0.89234371    -0.02100
C1321       C  0.94722853  0.12787846  0.88688838     0.07900
C1322       C  0.93035495  0.10577467  0.89913942    -0.02300
Br1323     Br  0.89156736  0.11355078  0.90265650    -0.00800
Br1324     Br  0.91827427  0.04926346  0.92976521    -0.00900
Br1325     Br  0.00352039  0.15272081  0.88794022    -0.00800
Br1326     Br  0.02584241  0.08858200  0.92396221    -0.00800
C1327       C  0.99204745  0.41254001  0.89763813    -0.02000
C1328       C  0.97305782  0.43686154  0.90177957     0.07700
C1329       C  0.94513353  0.42865779  0.90491529    -0.02100
C1330       C  0.93569889  0.39880646  0.89660595    -0.02100
C1331       C  0.95373916  0.37615425  0.88613053     0.07900
C1332       C  0.98219289  0.38281878  0.88782441    -0.02300
Br1333     Br  0.00779545  0.35083585  0.87768483    -0.00800
Br1334     Br  0.03087698  0.41705792  0.91448864    -0.00900
Br1335     Br  0.89722112  0.38923788  0.89757135    -0.00800
Br1336     Br  0.91855049  0.45774029  0.92037519    -0.00800
C1337       C  0.97854044  0.53401073  0.40595473     0.29900
C1338       C  0.98001659  0.96978326  0.40453916     0.29900
C1339       C  0.95625014  0.51814106  0.38044381    -0.06300
C1340       C  0.00514610  0.51904642  0.39349077    -0.07100
C1341       C  0.97792612  0.51827309  0.44017083    -0.07000
C1342       C  0.95746539  0.98510003  0.37936096    -0.06300
C1343       C  0.00609256  0.98569980  0.39406681    -0.07100
C1344       C  0.97769189  0.98545867  0.43932696    -0.07000
C1345       C  0.94545917  0.97557055  0.34711050    -0.32300
N1346       N  0.93642407  0.00032381  0.32870940     0.14200
C1347       C  0.94287537  0.52729096  0.34884048    -0.32400
H1348       H  0.94109870  0.55039415  0.33974713     0.16100
C1349       C  0.02631740  0.97738099  0.37386746    -0.31300
N1350       N  0.03908425  0.00262720  0.36480853     0.12900
C1351       C  0.02542275  0.52813646  0.37434679    -0.31300
C1352       C  0.98575668  0.97605703  0.47250399    -0.31600
N1353       N  0.98980832  0.50202332  0.49367643     0.13400
H1354       H  0.99108489  0.95284920  0.47980916     0.16000
C1355       C  0.98542950  0.52729895  0.47423992    -0.31600
H1356       H  0.98935359  0.55046041  0.48358917     0.16000
H1357       H  0.02938947  0.55117077  0.36770789     0.16000
H1358       H  0.94498093  0.95225146  0.33735620     0.16100
H1359       H  0.03024324  0.95461386  0.36443417     0.16000
Zr1360     Zr  0.87585827  0.70086821  0.34067189     2.17500
O1361       O  0.85834664  0.67568725  0.38729157    -0.51400
O1362       O  0.86856920  0.65851023  0.29764979    -0.74600
O1363       O  0.82392860  0.70515482  0.33546986    -0.81400
O1364       O  0.95288156  0.67341738  0.35778356    -0.83200
O1365       O  0.81125523  0.75513323  0.32739127    -0.78800
O1366       O  0.90986295  0.66287765  0.36840548    -0.90400
O1367       O  0.86673095  0.67725608  0.24485754    -0.76400
O1368       O  0.85574588  0.72955722  0.29258259    -0.85900
O1369       O  0.91000600  0.69875950  0.30287704    -0.85600
O1370       O  0.86832841  0.75234098  0.36200769    -0.72300
O1371       O  0.91692821  0.72485162  0.37086478    -0.84500
Zr1372     Zr  0.92215258  0.80030916  0.30431159     2.26400
Zr1373     Zr  0.84983129  0.78137468  0.31279103     2.06300
Zr1374     Zr  0.95086325  0.72287688  0.33195821     2.10000
Zr1375     Zr  0.88889258  0.72574061  0.25414066     1.78800
O1376       O  0.98927066  0.73249765  0.37760417    -0.93300
O1377       O  0.84799533  0.73344109  0.21141886    -0.41100
O1378       O  0.92959538  0.74947126  0.28280691    -0.77700
O1379       O  0.88197596  0.77677930  0.27328804    -0.96400
O1380       O  0.88963221  0.80511464  0.34331359    -0.89700
O1381       O  0.94303701  0.77346214  0.35324667    -0.92500
C1382       C  0.86496912  0.65519229  0.26463691     1.01200
C1383       C  0.93613268  0.65642525  0.37037075     1.14100
C1384       C  0.80574629  0.72740631  0.33182448     1.04900
O1385       O  0.80703506  0.78963985  0.27361228    -0.94700
O1386       O  0.84891161  0.82637684  0.27704054    -0.90400
O1387       O  0.89371095  0.84153172  0.28173351    -0.83600
C1388       C  0.86789437  0.84451476  0.27083776     1.11600
O1389       O  0.89561387  0.75525390  0.44258063    -0.96700
Zr1390     Zr  0.90946616  0.77648372  0.39118993     1.88900
O1391       O  0.94178014  0.83999709  0.34387041    -0.73300
O1392       O  0.83365516  0.81863370  0.35278480    -0.52600
O1393       O  0.87750502  0.81072672  0.41667937    -0.97300
O1394       O  0.94826203  0.76757498  0.43649529    -0.54500
O1395       O  0.93370683  0.82580561  0.39658996    -0.73800
C1396       C  0.94324235  0.84433199  0.37638271     0.98500
O1397       O  0.92128179  0.82530292  0.24988096    -0.62700
O1398       O  0.98173103  0.68802690  0.30528621    -0.57500
O1399       O  0.97100016  0.79342217  0.30501398    -0.94100
O1400       O  0.97900439  0.74523867  0.29256112    -0.92600
O1401       O  0.91660257  0.68862530  0.22609255    -0.92900
O1402       O  0.90318877  0.75064939  0.20531393    -0.91700
C1403       C  0.97896256  0.77336615  0.28475811     1.17300
H1404       H  0.91504833  0.67816691  0.29659500     0.33300
H1405       H  0.87579352  0.78761016  0.25276329     0.44100
H1406       H  0.96020878  0.78253661  0.36384824     0.37700
H1407       H  0.85480487  0.75196447  0.37768311     0.34100
H1408       H  0.83285854  0.72294829  0.22039945     0.25900
H1409       H  0.81694981  0.82816165  0.33962602     0.31900
H1410       H  0.88933678  0.82214893  0.43508637     0.37800
H1411       H  0.91321164  0.69342035  0.20144966     0.32200
H1412       H  0.99772920  0.68406169  0.32318539     0.31100
H1413       H  0.00192691  0.74558216  0.36717794     0.32800
H1414       H  0.96192583  0.78340626  0.43382365     0.31800
H1415       H  0.88979099  0.76768555  0.19965698     0.35800
H1416       H  0.93533324  0.84137117  0.25208538     0.28500
H1417       H  0.84321737  0.66247528  0.37619169     0.32700
H1418       H  0.90117022  0.77028185  0.46143401     0.35600
H1419       H  0.97199073  0.66836981  0.30133841     0.28200
H1420       H  0.92621156  0.80964159  0.23316254     0.41100
H1421       H  0.81081548  0.78050927  0.25145095     0.31100
H1422       H  0.84310582  0.75538986  0.21337788     0.38700
H1423       H  0.95701435  0.74824364  0.42950777     0.30600
H1424       H  0.82631584  0.80628877  0.36996739     0.30700
H1425       H  0.84891642  0.69206152  0.39936929     0.30900
C1426       C  0.87780837  0.96378398  0.22047080     0.29900
C1427       C  0.87133822  0.52719779  0.21886949     0.29900
C1428       C  0.89358960  0.98158394  0.25041867    -0.06300
C1429       C  0.89081198  0.97850789  0.19077698    -0.07100
C1430       C  0.84845349  0.97698403  0.21438003    -0.07000
C1431       C  0.88970051  0.51429985  0.25053871    -0.06300
C1432       C  0.88772857  0.51244856  0.18988953    -0.07100
C1433       C  0.84446567  0.50833318  0.21382730    -0.07000
C1434       C  0.90649011  0.52562046  0.27946380    -0.32300
N1435       N  0.92134911  0.99965083  0.29537092     0.14200
C1436       C  0.91346935  0.97385568  0.27727487    -0.32400
H1437       H  0.92044593  0.95092488  0.28391134     0.16100
C1438       C  0.91139331  0.52198763  0.17658184    -0.31300
N1439       N  0.92729337  0.99625438  0.16790171     0.12900
C1440       C  0.91551490  0.97094437  0.17811902    -0.31300
C1441       C  0.81560310  0.51309007  0.20729436    -0.31600
N1442       N  0.80297368  0.98607550  0.20477399     0.13400
H1443       H  0.80481362  0.53495381  0.20515265     0.16000
C1444       C  0.82266487  0.96387403  0.20792997    -0.31600
H1445       H  0.81842282  0.93969064  0.20633893     0.16000
H1446       H  0.92569056  0.94877890  0.17977689     0.16000
H1447       H  0.90809151  0.54925831  0.28805652     0.16100
H1448       H  0.91819784  0.54529209  0.17675544     0.16000
C1449       C  0.01531660  0.53081993  0.11860912     0.29900
C1450       C  0.01649749  0.96696830  0.11460660     0.29900
C1451       C  0.03959759  0.51383641  0.13946480    -0.06300
C1452       C  0.98951058  0.51499557  0.13094837    -0.07100
C1453       C  0.01315118  0.51619122  0.08228180    -0.07000
C1454       C  0.03941775  0.98215511  0.13946064    -0.06300
C1455       C  0.99060260  0.98136167  0.12980050    -0.07100
C1456       C  0.01496348  0.98416910  0.08088512    -0.07000
C1457       C  0.05378709  0.97238302  0.17030596    -0.32300
N1458       N  0.06364303  0.99709686  0.18912474     0.14200
C1459       C  0.05520186  0.52223641  0.17020459    -0.32400
H1460       H  0.05837592  0.54526885  0.18010128     0.16100
C1461       C  0.96808154  0.97196894  0.14497715    -0.31300
N1462       N  0.95242929  0.99680024  0.15294196     0.12900
C1463       C  0.96465916  0.52342016  0.14306593    -0.31300
C1464       C  0.00619109  0.97580994  0.04699718    -0.31600
N1465       N  0.99961632  0.50146652  0.02755717     0.13400
H1466       H  0.00309090  0.95265883  0.03720803     0.16000
C1467       C  0.00312147  0.52607510  0.04953419    -0.31600
H1468       H  0.99807293  0.54944811  0.04266709     0.16000
H1469       H  0.95633465  0.54638423  0.14475585     0.16000
H1470       H  0.05511099  0.94919383  0.17912404     0.16100
H1471       H  0.96381220  0.94882012  0.15074063     0.16000
Zr1472     Zr  0.12251524  0.69889566  0.18051630     2.17500
O1473       O  0.14248333  0.66816538  0.13729969    -0.51400
O1474       O  0.12987799  0.66256336  0.22751455    -0.74600
O1475       O  0.17429147  0.70234890  0.19002025    -0.81400
O1476       O  0.04829429  0.67529629  0.14284667    -0.83200
O1477       O  0.18566993  0.74570668  0.22182253    -0.78800
O1478       O  0.09235383  0.65608157  0.15508828    -0.90400
O1479       O  0.09835859  0.67237150  0.26347530    -0.76400
O1480       O  0.12834780  0.72311750  0.23601045    -0.85900
O1481       O  0.07793114  0.70168578  0.19899029    -0.85600
O1482       O  0.13732395  0.75006839  0.17157550    -0.72300
O1483       O  0.09316522  0.72800035  0.13725540    -0.84500
Zr1484     Zr  0.07098234  0.80216166  0.20553470     2.26400
Zr1485     Zr  0.14369601  0.77359821  0.22787602     2.06300
Zr1486     Zr  0.04861842  0.72954157  0.15621302     2.10000
Zr1487     Zr  0.08357532  0.72492678  0.25412115     1.78800
O1488       O  0.03893873  0.73290447  0.09408571    -0.93300
O1489       O  0.11156623  0.72975954  0.31034864    -0.41100
O1490       O  0.05284059  0.75278704  0.21259751    -0.77700
O1491       O  0.10005505  0.77473022  0.24833494    -0.96400
O1492       O  0.11477683  0.80359347  0.18667706    -0.89700
O1493       O  0.06347481  0.77965537  0.14962307    -0.92500
C1494       C  0.11673624  0.65510609  0.25211818     1.01200
C1495       C  0.06592494  0.65308453  0.14496387     1.14100
C1496       C  0.19208020  0.72152722  0.20564554     1.04900
O1497       O  0.16801330  0.76487667  0.28529487    -0.94700
O1498       O  0.13925412  0.82123172  0.25983159    -0.90400
O1499       O  0.09596673  0.84013015  0.24113287    -0.83600
C1500       C  0.11994768  0.84173081  0.25895542     1.11600
O1501       O  0.13771434  0.76185190  0.09072740    -0.96700
Zr1502     Zr  0.10725389  0.78016253  0.13112776     1.88900
O1503       O  0.06143275  0.84283968  0.16594730    -0.73300
O1504       O  0.17807654  0.80904653  0.21415696    -0.52600
O1505       O  0.14534445  0.81478519  0.12898403    -0.97300
O1506       O  0.08326073  0.77524814  0.07259429    -0.54500
O1507       O  0.08168661  0.82939520  0.11914015    -0.73800
C1508       C  0.06632800  0.84727639  0.13555165     0.98500
O1509       O  0.05137476  0.82997409  0.25064051    -0.62700
O1510       O  0.00279449  0.70759572  0.15344059    -0.57500
O1511       O  0.02247452  0.80589713  0.19020960    -0.94100
O1512       O  0.00835269  0.76284226  0.16008121    -0.92600
O1513       O  0.04299535  0.69669180  0.26377020    -0.92900
O1514       O  0.05670863  0.75002977  0.29487745    -0.91700
C1515       C  0.00364346  0.78868062  0.17480489     1.17300
H1516       H  0.07083737  0.68190858  0.20229526     0.33300
H1517       H  0.10110269  0.78520704  0.27042044     0.44100
H1518       H  0.04937410  0.79007052  0.13425967     0.37700
H1519       H  0.15458093  0.74938291  0.16262333     0.34100
H1520       H  0.10107737  0.71902287  0.32597261     0.25900
H1521       H  0.19405653  0.80675433  0.23256901     0.31900
H1522       H  0.13825105  0.82913845  0.11070777     0.37800
H1523       H  0.04820935  0.68759933  0.28654863     0.32200
H1524       H  0.99907853  0.69667626  0.13097833     0.31100
H1525       H  0.05045843  0.71645443  0.08519687     0.32800
H1526       H  0.09208966  0.79032517  0.05959208     0.31800
H1527       H  0.04096209  0.76014793  0.28049634     0.35800
H1528       H  0.03957503  0.81481608  0.25936586     0.28500
H1529       H  0.15826537  0.65665258  0.14993439     0.32700
H1530       H  0.13565040  0.73941060  0.08983243     0.35600
H1531       H  0.00481529  0.69145200  0.17068852     0.28200
H1532       H  0.03846783  0.84520711  0.23860605     0.41100
H1533       H  0.17060188  0.74244381  0.28651591     0.31100
H1534       H  0.12817586  0.71664815  0.30877135     0.38700
H1535       H  0.06439751  0.78384608  0.07358612     0.30600
H1536       H  0.18468426  0.80024621  0.19329453     0.30700
H1537       H  0.15113454  0.68309991  0.12393110     0.30900
C1538       C  0.11852891  0.96738167  0.30288987     0.29900
C1539       C  0.11992950  0.52957711  0.30085403     0.29900
C1540       C  0.10383744  0.98237518  0.27057173    -0.06300
C1541       C  0.10266185  0.98408683  0.32998763    -0.07100
C1542       C  0.14709686  0.98162821  0.31061008    -0.07000
C1543       C  0.10434199  0.51339995  0.26902003    -0.06300
C1544       C  0.10298599  0.51671971  0.32857621    -0.07100
C1545       C  0.14802147  0.51231068  0.30859587    -0.07000
C1546       C  0.08782284  0.52248475  0.23962221    -0.32300
N1547       N  0.07844774  0.99735082  0.22259720     0.14200
C1548       C  0.08682690  0.97257051  0.24133095    -0.32400
H1549       H  0.08151177  0.94921780  0.23410175     0.16100
C1550       C  0.07789256  0.52667953  0.33924219    -0.31300
N1551       N  0.06370873  0.00226735  0.34894005     0.12900
C1552       C  0.07770624  0.97670735  0.34057294    -0.31300
C1553       C  0.17618540  0.51915353  0.31463830    -0.31600
N1554       N  0.19177875  0.99334726  0.32000719     0.13400
H1555       H  0.18500268  0.54157168  0.31441375     0.16000
C1556       C  0.17385647  0.97001816  0.31727416    -0.31600
H1557       H  0.17995685  0.94612074  0.31835604     0.16000
H1558       H  0.06920238  0.95410958  0.33923663     0.16000
H1559       H  0.08381927  0.54577563  0.23183824     0.16100
H1560       H  0.06995032  0.54991569  0.33865601     0.16000
C1561       C  0.51642187  0.78253518  0.09841232     0.29900
C1562       C  0.51886624  0.71959048  0.09453581     0.29900
C1563       C  0.54007954  0.76681461  0.12163070    -0.06300
C1564       C  0.49095151  0.76602060  0.11027234    -0.07100
C1565       C  0.51684726  0.76789787  0.06267963    -0.07000
C1566       C  0.54129964  0.73539130  0.11987139    -0.06300
C1567       C  0.49222412  0.73347712  0.10806802    -0.07100
C1568       C  0.51840594  0.73629157  0.06091602    -0.07000
C1569       C  0.55701485  0.72595299  0.14992366    -0.32300
N1570       N  0.56603752  0.75091308  0.16906770     0.14200
C1571       C  0.55516919  0.77595804  0.15250198    -0.32400
H1572       H  0.55618083  0.79900342  0.16313193     0.16100
C1573       C  0.47099809  0.72312501  0.12487144    -0.31300
N1574       N  0.45617473  0.74739735  0.13561144     0.12900
C1575       C  0.46897649  0.77332879  0.12843951    -0.31300
C1576       C  0.50921463  0.72747847  0.02742400    -0.31600
N1577       N  0.50282798  0.75271731  0.00854438     0.13400
H1578       H  0.50541257  0.70423371  0.01836123     0.16000
C1579       C  0.50655159  0.77753395  0.03002996    -0.31600
H1580       H  0.50023140  0.80063218  0.02323059     0.16000
H1581       H  0.46391779  0.79557571  0.13832035     0.16000
H1582       H  0.55999896  0.70261165  0.15801236     0.16100
H1583       H  0.46761410  0.69978309  0.13084069     0.16000
Zr1584     Zr  0.61578579  0.95042469  0.16489865     2.17500
O1585       O  0.63570351  0.92039452  0.12123647    -0.51400
O1586       O  0.61921940  0.91135469  0.20831390    -0.74600
O1587       O  0.66775685  0.95104572  0.17664994    -0.81400
O1588       O  0.53990174  0.92940702  0.12688618    -0.83200
O1589       O  0.68011757  0.49481138  0.20571527    -0.78800
O1590       O  0.58357802  0.90965251  0.13969753    -0.90400
O1591       O  0.59639009  0.92895447  0.25154724    -0.76400
O1592       O  0.62346763  0.97649388  0.21934576    -0.85900
O1593       O  0.57206436  0.95470702  0.18550296    -0.85600
O1594       O  0.63178758  0.49943501  0.15420471    -0.72300
O1595       O  0.58593025  0.97918252  0.12222727    -0.84500
Zr1596     Zr  0.56723040  0.55602014  0.18840287     2.26400
Zr1597     Zr  0.63947830  0.52531533  0.20915986     2.06300
Zr1598     Zr  0.54230770  0.98278822  0.14348686     2.10000
Zr1599     Zr  0.57960159  0.98031832  0.23950068     1.78800
O1600       O  0.52213611  0.97605617  0.08358983    -0.93300
O1601       O  0.60472942  0.98114299  0.29760086    -0.41100
O1602       O  0.54868434  0.00822649  0.19850359    -0.77700
O1603       O  0.59664433  0.52907672  0.23149305    -0.96400
O1604       O  0.61048292  0.55478461  0.16785056    -0.89700
O1605       O  0.55854551  0.53147873  0.13360407    -0.92500
C1606       C  0.60972212  0.90816116  0.23682638     1.01200
C1607       C  0.55728686  0.90695966  0.12858445     1.14100
C1608       C  0.68601088  0.96993504  0.19187990     1.04900
O1609       O  0.66608589  0.52050501  0.26602074    -0.94700
O1610       O  0.63745862  0.57377791  0.24008160    -0.90400
O1611       O  0.59421184  0.59339684  0.22291577    -0.83600
C1612       C  0.61853062  0.59461306  0.23988965     1.11600
O1613       O  0.63117592  0.50954357  0.07259098    -0.96700
Zr1614     Zr  0.60172333  0.52930262  0.11347526     1.88900
O1615       O  0.55994329  0.59601276  0.14793166    -0.73300
O1616       O  0.67306303  0.55703530  0.18724185    -0.52600
O1617       O  0.63941844  0.56325422  0.10681791    -0.97300
O1618       O  0.57644464  0.52034247  0.05619590    -0.54500
O1619       O  0.57733919  0.57885167  0.10019516    -0.73800
C1620       C  0.56386880  0.59857414  0.11684402     0.98500
O1621       O  0.54273738  0.58338760  0.22978374    -0.62700
O1622       O  0.50158430  0.96690418  0.16631915    -0.57500
O1623       O  0.51844919  0.55900908  0.17284625    -0.94100
O1624       O  0.50314018  0.01824047  0.13839041    -0.92600
O1625       O  0.53637529  0.95538444  0.24493168    -0.92900
O1626       O  0.55578714  0.00642963  0.28268009    -0.91700
C1627       C  0.49916485  0.54298327  0.15611587     1.17300
H1628       H  0.56439811  0.93514840  0.18905734     0.33300
H1629       H  0.59850038  0.54003421  0.25308889     0.44100
H1630       H  0.54461960  0.54184005  0.11788906     0.37700
H1631       H  0.64905824  0.49734913  0.14498963     0.34100
H1632       H  0.59668917  0.96446460  0.30919769     0.25900
H1633       H  0.68948605  0.55700104  0.20525913     0.31900
H1634       H  0.63651414  0.58146391  0.12143064     0.37800
H1635       H  0.53848339  0.94951819  0.26923297     0.32200
H1636       H  0.48973150  0.95741158  0.14649866     0.31100
H1637       H  0.51031834  0.99446366  0.07828986     0.32800
H1638       H  0.55824349  0.53080823  0.05650622     0.31800
H1639       H  0.54813780  0.52448902  0.27339836     0.35800
H1640       H  0.55379803  0.58026288  0.25257881     0.28500
H1641       H  0.64885221  0.90581892  0.13404741     0.32700
H1642       H  0.62956636  0.48708632  0.07315412     0.35600
H1643       H  0.50819821  0.95003028  0.18166347     0.28200
H1644       H  0.54410376  0.60538470  0.22535176     0.41100
H1645       H  0.65259782  0.52533818  0.28204606     0.31100
H1646       H  0.62371074  0.97371796  0.29506896     0.38700
H1647       H  0.57216287  0.49833023  0.05513430     0.30600
H1648       H  0.67907615  0.54501941  0.16785897     0.30700
H1649       H  0.64755985  0.93470817  0.11119702     0.30900
C1650       C  0.61661554  0.71940358  0.28435878     0.29900
C1651       C  0.61705377  0.78223088  0.28626935     0.29900
C1652       C  0.60379315  0.73516664  0.25182051    -0.06300
C1653       C  0.59917122  0.73479430  0.31027486    -0.07100
C1654       C  0.64472548  0.73407599  0.29490532    -0.07000
C1655       C  0.60517624  0.76638561  0.25209062    -0.06300
C1656       C  0.59977632  0.76712738  0.31225718    -0.07100
C1657       C  0.64573438  0.76565161  0.29669780    -0.07000
C1658       C  0.59172963  0.77574885  0.22064044    -0.32300
N1659       N  0.58155376  0.75082716  0.20219699     0.14200
C1660       C  0.58836770  0.72587994  0.22127371    -0.32400
H1661       H  0.58263947  0.70270978  0.21372727     0.16100
C1662       C  0.58002671  0.77614210  0.33311618    -0.31300
N1663       N  0.56550201  0.75127178  0.33987551     0.12900
C1664       C  0.57667131  0.72631655  0.32532250    -0.31300
C1665       C  0.67361984  0.77208431  0.30881785    -0.31600
N1666       N  0.68864484  0.74531288  0.31222263     0.13400
H1667       H  0.68245023  0.79450986  0.31348421     0.16000
C1668       C  0.67092028  0.72218507  0.30451603    -0.31600
H1669       H  0.67690675  0.69824114  0.30490558     0.16000
H1670       H  0.56782837  0.70385885  0.32334522     0.16000
H1671       H  0.58886840  0.79902903  0.21232489     0.16100
H1672       H  0.57502819  0.79939406  0.34022523     0.16000
C1673       C  0.47518720  0.78313257  0.38621817     0.29900
C1674       C  0.47691339  0.72013407  0.38678188     0.29900
C1675       C  0.45165658  0.76657226  0.36367457    -0.06300
C1676       C  0.50182175  0.76750154  0.37506667    -0.07100
C1677       C  0.47567589  0.76876257  0.42154616    -0.07000
C1678       C  0.45279887  0.73518681  0.36348960    -0.06300
C1679       C  0.50208255  0.73532183  0.37377757    -0.07100
C1680       C  0.47627018  0.73682181  0.42140905    -0.07000
C1681       C  0.43244990  0.72519602  0.33802094    -0.32300
N1682       N  0.41860355  0.74973794  0.32316485     0.15000
C1683       C  0.43025770  0.77526487  0.33872600    -0.32400
H1684       H  0.42515146  0.79836676  0.33083931     0.16100
C1685       C  0.52531126  0.72649351  0.35902350    -0.31300
N1686       N  0.54054834  0.75147744  0.35485496     0.12900
C1687       C  0.52674371  0.77653414  0.36543815    -0.31300
C1688       C  0.48551881  0.72801253  0.45423478    -0.31600
N1689       N  0.49019839  0.75326146  0.47468374     0.13400
H1690       H  0.49051282  0.70483023  0.46185388     0.16000
C1691       C  0.48539110  0.77824990  0.45489081    -0.31600
H1692       H  0.49026592  0.80143089  0.46342320     0.16000
H1693       H  0.53369485  0.79974751  0.36496226     0.16000
H1694       H  0.42928344  0.70178801  0.32977374     0.16100
H1695       H  0.53018404  0.70364358  0.35063837     0.16000
Zr1696     Zr  0.37759699  0.95180405  0.32344633     2.17500
O1697       O  0.36255359  0.92395330  0.36992100    -0.51400
O1698       O  0.36871132  0.90864282  0.28119721    -0.74600
O1699       O  0.32666243  0.95726437  0.32508009    -0.81400
O1700       O  0.45527856  0.92741064  0.34187674    -0.83200
O1701       O  0.31316042  0.50707507  0.31655761    -0.78800
O1702       O  0.41196658  0.91304158  0.34864707    -0.90400
O1703       O  0.37722061  0.92586544  0.23005844    -0.76400
O1704       O  0.35431243  0.98308735  0.27861251    -0.85900
O1705       O  0.40964800  0.95143397  0.28271273    -0.85600
O1706       O  0.37147934  0.50324893  0.34727611    -0.72300
O1707       O  0.42028950  0.97365236  0.35202698    -0.84500
Zr1708     Zr  0.42319684  0.55249046  0.28830083     2.26400
Zr1709     Zr  0.35070659  0.53523515  0.30099161     2.06300
Zr1710     Zr  0.45149559  0.97386136  0.31007468     2.10000
Zr1711     Zr  0.38508729  0.98082001  0.23790070     1.78800
O1712       O  0.49480420  0.98304118  0.34805929    -0.93300
O1713       O  0.33537608  0.98752748  0.22017701    -0.41100
O1714       O  0.42400288  0.00187524  0.27000015    -0.77700
O1715       O  0.38051597  0.53248951  0.25786467    -0.96400
O1716       O  0.39276984  0.55565640  0.33001837    -0.89700
O1717       O  0.44572019  0.52347425  0.33468975    -0.92500
C1718       C  0.37161674  0.90436745  0.24929065     1.01200
C1719       C  0.43866045  0.90875130  0.35223396     1.14100
C1720       C  0.30844473  0.97941877  0.32178313     1.04900
O1721       O  0.30600291  0.54443518  0.26598674    -0.94700
O1722       O  0.35181346  0.58308515  0.26829973    -0.90400
O1723       O  0.39261786  0.59478980  0.29550061    -0.83600
C1724       C  0.37281632  0.60079856  0.27213492     1.11600
O1725       O  0.40449984  0.50023650  0.42673470    -0.96700
Zr1726     Zr  0.41415330  0.52498927  0.37522753     1.88900
O1727       O  0.44872504  0.58756302  0.32939897    -0.73300
O1728       O  0.33742767  0.57020487  0.34524706    -0.52600
O1729       O  0.38465379  0.55628677  0.40789092    -0.97300
O1730       O  0.45633496  0.51489960  0.41500192    -0.54500
O1731       O  0.43656792  0.57513571  0.38080159    -0.73800
C1732       C  0.44783060  0.59291434  0.36142373     0.98500
O1733       O  0.42427958  0.57679688  0.23378967    -0.62700
O1734       O  0.47471784  0.93802277  0.27485532    -0.57500
O1735       O  0.47127938  0.54198028  0.28766187    -0.94100
O1736       O  0.47884618  0.99487184  0.26947549    -0.92600
O1737       O  0.39081786  0.95806913  0.18208780    -0.92900
O1738       O  0.39486800  0.01103788  0.19024108    -0.91700
C1739       C  0.47737602  0.52346254  0.26474664     1.17300
H1740       H  0.41522060  0.93147860  0.27550839     0.33300
H1741       H  0.37346843  0.54434276  0.23830283     0.44100
H1742       H  0.46338564  0.53150256  0.34502303     0.37700
H1743       H  0.35892580  0.50244108  0.36416242     0.34100
H1744       H  0.33380028  0.00084900  0.20012269     0.25900
H1745       H  0.32054489  0.58090605  0.33406672     0.31900
H1746       H  0.39771257  0.56767384  0.42502854     0.37800
H1747       H  0.37167815  0.95604154  0.16978205     0.32200
H1748       H  0.49406263  0.93646288  0.28670474     0.31100
H1749       H  0.50002870  0.96315190  0.35865847     0.32800
H1750       H  0.47104003  0.52651044  0.40649151     0.31800
H1751       H  0.38041603  0.52378570  0.18377518     0.35800
H1752       H  0.42961812  0.59808978  0.23939437     0.28500
H1753       H  0.34866452  0.90935050  0.35865036     0.32700
H1754       H  0.41233851  0.51359003  0.44627952     0.35600
H1755       H  0.46656215  0.91802812  0.27735584     0.28200
H1756       H  0.40496659  0.57803485  0.22194894     0.41100
H1757       H  0.31005822  0.54371565  0.24207959     0.31100
H1758       H  0.32926085  0.96733126  0.21036029     0.38700
H1759       H  0.46108719  0.49323331  0.41039899     0.30600
H1760       H  0.33065589  0.55690399  0.36202244     0.30700
H1761       H  0.35189610  0.93885541  0.38248851     0.30900
C1762       C  0.38051337  0.71301756  0.20410437     0.29900
C1763       C  0.37601863  0.77611109  0.20291941     0.29900
C1764       C  0.38692283  0.73051226  0.23881870    -0.06300
C1765       C  0.39893927  0.72894162  0.18119302    -0.07100
C1766       C  0.35109010  0.72605770  0.19214229    -0.07000
C1767       C  0.38514752  0.76203754  0.23817455    -0.06300
C1768       C  0.39637644  0.76068049  0.18023822    -0.07100
C1769       C  0.34828864  0.75848427  0.19173768    -0.07000
C1770       C  0.39336738  0.77283087  0.27138739    -0.32300
N1771       N  0.40063557  0.74872861  0.29166279     0.14200
C1772       C  0.39493388  0.72300002  0.27253815    -0.32400
H1773       H  0.39764177  0.70053437  0.28257648     0.16100
C1774       C  0.41655255  0.77051069  0.16153430    -0.31300
N1775       N  0.43203457  0.74607877  0.15237043     0.12900
C1776       C  0.42099487  0.72051447  0.16363505    -0.31300
C1777       C  0.32102958  0.76460543  0.19799632    -0.31600
N1778       N  0.30757757  0.73807178  0.20001354     0.13400
H1779       H  0.31217894  0.78674768  0.20338837     0.16000
C1780       C  0.32595551  0.71502535  0.19847478    -0.31600
H1781       H  0.32157827  0.69196064  0.20461063     0.16000
H1782       H  0.42910542  0.69755715  0.16081679     0.16000
H1783       H  0.39549581  0.79639504  0.27987353     0.16100
H1784       H  0.42044437  0.79403566  0.15659181     0.16000
C1785       C  0.39715026  0.85493250  0.24129536    -0.02000
C1786       C  0.37235999  0.87235286  0.23457423     0.07700
C1787       C  0.35132645  0.86109791  0.20908382    -0.02100
C1788       C  0.35368856  0.83125645  0.19423591    -0.02100
C1789       C  0.37663966  0.81179625  0.20592261     0.07900
C1790       C  0.40006933  0.82616224  0.22513929    -0.02300
Br1791     Br  0.43673179  0.80698534  0.23072147    -0.00800
Br1792     Br  0.42771493  0.87003953  0.27313367    -0.00900
Br1793     Br  0.33027728  0.82125233  0.15183348    -0.00800
Br1794     Br  0.31966269  0.88694032  0.19401824    -0.00800
C1795       C  0.40085638  0.64503684  0.25485944    -0.02000
C1796       C  0.37648677  0.62681357  0.24850006     0.07700
C1797       C  0.35904595  0.63129297  0.21670137    -0.02100
C1798       C  0.36310043  0.65674469  0.19641834    -0.02100
C1799       C  0.38426896  0.67783302  0.20780261     0.07900
C1800       C  0.40626460  0.66692542  0.23145793    -0.02300
Br1801     Br  0.44243329  0.68557405  0.23585772    -0.00800
Br1802     Br  0.42693609  0.64419528  0.29641575    -0.00900
Br1803     Br  0.34324297  0.65994072  0.15053880    -0.00800
Br1804     Br  0.33024734  0.60296466  0.19960194    -0.00800
C1805       C  0.47881672  0.83383351  0.35640736    -0.02000
C1806       C  0.46924981  0.81781941  0.38294905     0.07700
C1807       C  0.44767605  0.83266496  0.39897556    -0.02100
C1808       C  0.43874533  0.86297199  0.39072604    -0.02100
C1809       C  0.45125487  0.87940317  0.36693360     0.07900
C1810       C  0.47398126  0.86521614  0.35351078    -0.02300
Br1811     Br  0.50020531  0.88665214  0.33129628    -0.00800
Br1812     Br  0.48680843  0.81356483  0.31449058    -0.00900
Br1813     Br  0.41043338  0.88249322  0.41400021    -0.00800
Br1814     Br  0.42541186  0.81068354  0.42673415    -0.00800
C1815       C  0.49336849  0.66256981  0.38604551    -0.02000
C1816       C  0.47261680  0.68525850  0.38909702     0.07700
C1817       C  0.44608518  0.67480954  0.39458733    -0.02100
C1818       C  0.43850500  0.64437086  0.38659169    -0.02100
C1819       C  0.45783296  0.62317234  0.37580191     0.07900
C1820       C  0.48566790  0.63207820  0.37694306    -0.02300
Br1821     Br  0.51339807  0.60234132  0.36720177    -0.00800
Br1822     Br  0.53112639  0.66956656  0.40666569    -0.00900
Br1823     Br  0.40035617  0.63287735  0.38642650    -0.00800
Br1824     Br  0.41949961  0.70143091  0.41376346    -0.00800
C1825       C  0.47674393  0.56504674  0.22186977    -0.02000
C1826       C  0.47349903  0.53364101  0.22895088     0.07700
C1827       C  0.46146207  0.51391287  0.20152667    -0.02100
C1828       C  0.45640992  0.52530780  0.16812885    -0.02100
C1829       C  0.47054671  0.55142563  0.16205795     0.07900
C1830       C  0.47040338  0.57434734  0.18765588    -0.02300
Br1831     Br  0.47276408  0.61624118  0.17559750    -0.00800
Br1832     Br  0.48871143  0.59553192  0.25731197    -0.00900
Br1833     Br  0.43878375  0.50178909  0.12948545    -0.00800
Br1834     Br  0.45279020  0.47186761  0.20753632    -0.00800
C1835       C  0.63753158  0.86094445  0.25509479    -0.02000
C1836       C  0.61257018  0.87780955  0.25299054     0.07700
C1837       C  0.58881707  0.86378095  0.26163296    -0.02100
C1838       C  0.59040545  0.83382856  0.27428577    -0.02100
C1839       C  0.61629892  0.81704882  0.27917495     0.07900
C1840       C  0.63835503  0.83005414  0.26405925    -0.02300
Br1841     Br  0.66373522  0.80531075  0.24076174    -0.00800
Br1842     Br  0.67029458  0.87909708  0.24221536    -0.00900
Br1843     Br  0.55489926  0.81435400  0.27330563    -0.00800
Br1844     Br  0.55269907  0.88358680  0.25026479    -0.00800
C1845       C  0.63570694  0.64567640  0.23800016    -0.02000
C1846       C  0.62529561  0.62364580  0.25714479     0.07700
C1847       C  0.61648772  0.63137349  0.28874174    -0.02100
C1848       C  0.61632763  0.66211556  0.30014303    -0.02100
C1849       C  0.62134741  0.68523343  0.27753682     0.07900
C1850       C  0.63432992  0.67627434  0.24817630    -0.02300
Br1851     Br  0.65119708  0.70458112  0.22058812    -0.00800
Br1852     Br  0.64935298  0.63378866  0.19553865    -0.00900
Br1853     Br  0.61629676  0.67040927  0.34839037    -0.00800
Br1854     Br  0.60423811  0.59976906  0.31574748    -0.00800
C1855       C  0.51804067  0.86839829  0.12122316    -0.02000
C1856       C  0.54570436  0.87611461  0.11730022     0.07700
C1857       C  0.56132662  0.85460114  0.10041845    -0.02100
C1858       C  0.55106228  0.82504100  0.09205347    -0.02100
C1859       C  0.52392397  0.81678568  0.09861910     0.07900
C1860       C  0.50659218  0.84042705  0.10828966    -0.02300
Br1861     Br  0.46719668  0.83909165  0.09369576    -0.00800
Br1862     Br  0.49559860  0.89319827  0.14784150    -0.00900
Br1863     Br  0.57561616  0.79625106  0.07217744    -0.00800
Br1864     Br  0.59670353  0.86533039  0.08756759    -0.00800
C1865       C  0.55625196  0.67905525  0.08547245    -0.02000
C1866       C  0.52797307  0.68575628  0.08997715     0.07700
C1867       C  0.51039427  0.66060206  0.09009095    -0.02100
C1868       C  0.52216984  0.63103814  0.09574288    -0.02100
C1869       C  0.55126918  0.62635079  0.10008202     0.07900
C1870       C  0.56806949  0.65000492  0.09275656    -0.02300
Br1871     Br  0.60760635  0.64317097  0.09512418    -0.00800
Br1872     Br  0.57968607  0.70893080  0.06915488    -0.00900
Br1873     Br  0.49864810  0.59630340  0.09513462    -0.00800
Br1874     Br  0.47134448  0.66459832  0.07365685    -0.00800
C1875       C  0.23810693  0.48453263  0.35212398    -0.02000
C1876       C  0.22145030  0.98906053  0.32131965     0.07700
C1877       C  0.23268683  0.98206374  0.29097090    -0.02100
C1878       C  0.26083584  0.97362907  0.29214958    -0.02100
C1879       C  0.27878401  0.97430536  0.32347647     0.07900
C1880       C  0.26682916  0.47801107  0.35300157    -0.02300
Br1881     Br  0.29100986  0.47626727  0.39610708    -0.00800
Br1882     Br  0.22237361  0.49030792  0.39394077    -0.00900
Br1883     Br  0.27556639  0.96314957  0.25028347    -0.00800
Br1884     Br  0.21045493  0.98736697  0.24731878    -0.00800
C1885       C  0.24171509  0.71700622  0.23302052    -0.02000
C1886       C  0.22215076  0.71861227  0.20289062     0.07700
C1887       C  0.23131127  0.72655841  0.17198447    -0.02100
C1888       C  0.25936059  0.73376452  0.17150059    -0.02100
C1889       C  0.27854360  0.73356745  0.20183633     0.07900
C1890       C  0.26981351  0.72423145  0.23242222    -0.02300
Br1891     Br  0.29646495  0.72193549  0.27343699    -0.00800
Br1892     Br  0.22970152  0.70521922  0.27519282    -0.00900
Br1893     Br  0.27205529  0.74339674  0.12908240    -0.00800
Br1894     Br  0.20509571  0.72963553  0.13058006    -0.00800
C1895       C  0.11661689  0.90993623  0.31836208    -0.02000
C1896       C  0.12256437  0.93296140  0.29612030     0.07700
C1897       C  0.13478275  0.92359643  0.26620414    -0.02100
C1898       C  0.13675519  0.89284734  0.25681101    -0.02100
C1899       C  0.12610213  0.87102728  0.27597565     0.07900
C1900       C  0.11637264  0.87915736  0.30690015    -0.02300
Br1901     Br  0.10201383  0.84800494  0.33268020    -0.00800
Br1902     Br  0.11472249  0.91829467  0.36615824    -0.00900
Br1903     Br  0.15148659  0.88034324  0.21514281    -0.00800
Br1904     Br  0.14904468  0.95152705  0.23589677    -0.00800
C1905       C  0.11846993  0.61855614  0.30202718    -0.02000
C1906       C  0.12220152  0.62413428  0.26751912     0.07700
C1907       C  0.13057717  0.59931379  0.24743999    -0.02100
C1908       C  0.13389685  0.56998049  0.26101804    -0.02100
C1909       C  0.12434471  0.56337306  0.29264499     0.07900
C1910       C  0.11968647  0.58839508  0.31447850    -0.02300
Br1911     Br  0.12102880  0.58234647  0.36292171    -0.00800
Br1912     Br  0.11302863  0.65190097  0.33355680    -0.00900
Br1913     Br  0.15177753  0.53931832  0.23463415    -0.00800
Br1914     Br  0.13511989  0.60344483  0.19962176    -0.00800
C1915       C  0.01019109  0.90731396  0.11016437    -0.02000
C1916       C  0.02656565  0.93335490  0.10924176     0.07700
C1917       C  0.05502271  0.92790061  0.10423261    -0.02100
C1918       C  0.06819455  0.89953828  0.11204069    -0.02100
C1919       C  0.05250930  0.87488015  0.11929368     0.07900
C1920       C  0.02324180  0.87818651  0.11511417    -0.02300
Br1921     Br  0.00127374  0.84217646  0.11411136    -0.00800
Br1922     Br  0.97064626  0.90989177  0.09718282    -0.00900
Br1923     Br  0.10812226  0.89534150  0.11620465    -0.00800
Br1924     Br  0.07725590  0.95890975  0.08767300    -0.00800
C1925       C  0.05933859  0.60357121  0.11034386    -0.02000
C1926       C  0.05352071  0.62214636  0.13791911     0.07700
C1927       C  0.03440978  0.61192521  0.15857953    -0.02100
C1928       C  0.02025700  0.58402040  0.15108639    -0.02100
C1929       C  0.02443750  0.56522808  0.12178985     0.07900
C1930       C  0.04643548  0.57488875  0.10342115    -0.02300
Br1931     Br  0.06505914  0.54785374  0.07369412    -0.00800
Br1932     Br  0.08618581  0.61745267  0.08273641    -0.00900
Br1933     Br  0.00132123  0.56967820  0.18717358    -0.00800
Br1934     Br  0.03011232  0.63494482  0.20026283    -0.00800
C1935       C  0.75687950  0.98317190  0.16861054    -0.02000
C1936       C  0.77350729  0.98004612  0.20068889     0.07700
C1937       C  0.76175047  0.96706747  0.22757797    -0.02100
C1938       C  0.73328898  0.96011887  0.22347127    -0.02100
C1939       C  0.71626639  0.96487433  0.19198176     0.07900
C1940       C  0.72846780  0.97545573  0.16421467    -0.02300
Br1941     Br  0.70565819  0.98096934  0.12060198    -0.00800
Br1942     Br  0.77335386  0.99767453  0.13074933    -0.00900
Br1943     Br  0.71704889  0.94559747  0.26168765    -0.00800
Br1944     Br  0.78421757  0.95953288  0.27069013    -0.00800
C1945       C  0.76058938  0.72330357  0.29533160    -0.02000
C1946       C  0.77547530  0.72246560  0.32872070     0.07700
C1947       C  0.76122165  0.72932850  0.35686337    -0.02100
C1948       C  0.73262393  0.73753000  0.35148495    -0.02100
C1949       C  0.71840794  0.74049485  0.31798658     0.07900
C1950       C  0.73262181  0.73325913  0.28997873    -0.02300
Br1951     Br  0.71437473  0.73912760  0.24407795    -0.00800
Br1952     Br  0.77948006  0.71277795  0.25661272    -0.00900
Br1953     Br  0.71266901  0.74540370  0.38961489    -0.00800
Br1954     Br  0.78131177  0.72853721  0.40257654    -0.00800
C1955       C  0.96909276  0.76012393  0.22148322    -0.02000
C1956       C  0.97842082  0.78167449  0.24845638     0.07700
C1957       C  0.98011534  0.81297526  0.23975456    -0.02100
C1958       C  0.97403331  0.82064863  0.20492099    -0.02100
C1959       C  0.97486963  0.79686241  0.18041182     0.07900
C1960       C  0.96180852  0.77060445  0.18793251    -0.02300
Br1961     Br  0.94529127  0.74502619  0.15033648    -0.00800
Br1962     Br  0.97178571  0.71668707  0.22693127    -0.00900
Br1963     Br  0.97278591  0.86217476  0.19054873    -0.00800
Br1964     Br  0.99043863  0.84535326  0.27364554    -0.00800
C1965       C  0.85068172  0.60049042  0.26742273    -0.02000
C1966       C  0.86020230  0.62375180  0.24846444     0.07700
C1967       C  0.86596400  0.61590807  0.21465349    -0.02100
C1968       C  0.86701411  0.58491309  0.20328899    -0.02100
C1969       C  0.86418278  0.56130192  0.22597555     0.07900
C1970       C  0.85289166  0.56970463  0.25672947    -0.02300
Br1971     Br  0.83943902  0.53990943  0.28554263    -0.00800
Br1972     Br  0.83200103  0.61069053  0.30673204    -0.00900
Br1973     Br  0.86636054  0.57566947  0.15504157    -0.00800
Br1974     Br  0.87095180  0.64654263  0.18189037    -0.00800
C1975       C  0.87493523  0.90491402  0.20870722    -0.02000
C1976       C  0.87398799  0.93069851  0.23110353     0.07700
C1977       C  0.86267838  0.92654976  0.26276848    -0.02100
C1978       C  0.85593284  0.89768516  0.27251881    -0.02100
C1979       C  0.86076683  0.87235212  0.25230635     0.07900
C1980       C  0.86895352  0.87576703  0.21981770    -0.02300
Br1981     Br  0.87123020  0.84001834  0.19056598    -0.00800
Br1982     Br  0.88126739  0.90858820  0.16198816    -0.00900
Br1983     Br  0.84215320  0.89170999  0.31572466    -0.00800
Br1984     Br  0.85408440  0.95926798  0.29428875    -0.00800
C1985       C  0.94196378  0.57659027  0.40986071    -0.02000
C1986       C  0.97017881  0.56832701  0.40770062     0.07700
C1987       C  0.98832358  0.59212993  0.40476508    -0.02100
C1988       C  0.97769120  0.62112669  0.39356129    -0.02100
C1989       C  0.94823445  0.62731178  0.38736384     0.07900
C1990       C  0.93079196  0.60499241  0.39812228    -0.02300
Br1991     Br  0.89103903  0.61099768  0.39607799    -0.00800
Br1992     Br  0.91766654  0.54872932  0.42830101    -0.00900
Br1993     Br  0.00499065  0.65135635  0.38829031    -0.00800
Br1994     Br  0.02658785  0.58754513  0.42535924    -0.00800
C1995       C  0.99267331  0.91091040  0.40100030    -0.02000
C1996       C  0.97342932  0.93504531  0.40506821     0.07700
C1997       C  0.94571547  0.92647297  0.40881847    -0.02100
C1998       C  0.93664407  0.89640341  0.40127636    -0.02100
C1999       C  0.95479892  0.87398125  0.39068510     0.07900
C2000       C  0.98310639  0.88098285  0.39173424    -0.02300
Br2001     Br  0.00885737  0.84916853  0.38141526    -0.00800
Br2002     Br  0.03156534  0.91596659  0.41702328    -0.00900
Br2003     Br  0.89836651  0.88626684  0.40300406    -0.00800
Br2004     Br  0.91883070  0.95529802  0.42398710    -0.00800
C2005       C  0.97912072  0.53463060  0.90415818     0.29900
C2006       C  0.97987476  0.97093964  0.90302409     0.29900
C2007       C  0.95693713  0.51895691  0.87829166    -0.06300
C2008       C  0.00583638  0.51951032  0.89194797    -0.07100
C2009       C  0.97826399  0.51865338  0.93826388    -0.07000
C2010       C  0.95671800  0.98651523  0.87889419    -0.06300
C2011       C  0.00548858  0.98666763  0.89117514    -0.07100
C2012       C  0.97884002  0.98667158  0.93808008    -0.07000
C2013       C  0.94362712  0.97702748  0.84715085    -0.32300
N2014       N  0.93407322  0.00177477  0.82908358     0.14200
C2015       C  0.94377625  0.52817613  0.84656203    -0.32400
H2016       H  0.94172906  0.55134322  0.83768345     0.16100
C2017       C  0.02636566  0.97803489  0.87215661    -0.31300
N2018       N  0.03939282  0.00317775  0.86330663     0.12900
C2019       C  0.02658833  0.52843651  0.87342548    -0.31300
C2020       C  0.98698446  0.97717143  0.97117549    -0.31600
N2021       N  0.99022085  0.50208208  0.99172533     0.13400
H2022       H  0.99184784  0.95386387  0.97843524     0.16000
C2023       C  0.98611175  0.52742766  0.97236649    -0.31600
H2024       H  0.99031509  0.55050979  0.98180776     0.16000
H2025       H  0.03079436  0.55142840  0.86690175     0.16000
H2026       H  0.94294211  0.95372886  0.83733724     0.16100
H2027       H  0.03068668  0.95517476  0.86340198     0.16000
Zr2028     Zr  0.87497720  0.70160578  0.83923959     2.17500
O2029       O  0.85894659  0.67651177  0.88692403    -0.51400
O2030       O  0.86566318  0.65951454  0.79619728    -0.74600
O2031       O  0.82317152  0.70527802  0.83568484    -0.81400
O2032       O  0.95210626  0.67458359  0.85638147    -0.83200
O2033       O  0.81010133  0.75417132  0.82209879    -0.78800
O2034       O  0.90902492  0.66286109  0.86568749    -0.90400
O2035       O  0.86752600  0.67699136  0.74354334    -0.76400
O2036       O  0.85435250  0.73044904  0.79142482    -0.85900
O2037       O  0.90872044  0.69976755  0.80082046    -0.85600
O2038       O  0.86773122  0.75321603  0.86079220    -0.72300
O2039       O  0.91620360  0.72565690  0.86896013    -0.84500
Zr2040     Zr  0.92087448  0.80134984  0.80182532     2.26400
Zr2041     Zr  0.84884516  0.78234529  0.81188384     2.06300
Zr2042     Zr  0.94979770  0.72376834  0.82970325     2.10000
Zr2043     Zr  0.88698596  0.72691492  0.75235147     1.78800
O2044       O  0.98803178  0.73423435  0.87533577    -0.93300
O2045       O  0.84408036  0.73735640  0.71400145    -0.41100
O2046       O  0.92810696  0.75032534  0.78047139    -0.77700
O2047       O  0.88035850  0.77797522  0.77149308    -0.96400
O2048       O  0.88889168  0.80608185  0.84159830    -0.89700
O2049       O  0.94224645  0.77461394  0.85062482    -0.92500
C2050       C  0.86342826  0.65563696  0.76330102     1.01200
C2051       C  0.93543946  0.65694010  0.86821471     1.14100
C2052       C  0.80478692  0.72703498  0.82924082     1.04900
O2053       O  0.80404464  0.79502513  0.77874781    -0.94700
O2054       O  0.84726155  0.82728495  0.77582065    -0.90400
O2055       O  0.89202500  0.84226424  0.77913316    -0.83600
C2056       C  0.86608986  0.84540541  0.76907664     1.11600
O2057       O  0.89664815  0.75614053  0.94127955    -0.96700
Zr2058     Zr  0.90923530  0.77740724  0.88923098     1.88900
O2059       O  0.93994994  0.84159034  0.84090398    -0.73300
O2060       O  0.83463515  0.81672768  0.85601468    -0.52600
O2061       O  0.87930982  0.81093044  0.91888641    -0.97300
O2062       O  0.95012791  0.76704957  0.93105744    -0.54500
O2063       O  0.93225607  0.82753329  0.89383336    -0.73800
C2064       C  0.94140663  0.84615200  0.87337517     0.98500
O2065       O  0.92021972  0.82718384  0.74786745    -0.62700
O2066       O  0.98169192  0.68957272  0.80381011    -0.57500
O2067       O  0.96977700  0.79339252  0.80322267    -0.94100
O2068       O  0.97841235  0.74545566  0.79064295    -0.92600
O2069       O  0.91154042  0.69101631  0.71862439    -0.92900
O2070       O  0.89943282  0.75164829  0.70232754    -0.91700
C2071       C  0.97786990  0.77355411  0.78282297     1.17300
H2072       H  0.91354454  0.67911192  0.79437961     0.33300
H2073       H  0.87390520  0.78876380  0.75104961     0.44100
H2074       H  0.95944965  0.78378676  0.86100477     0.37700
H2075       H  0.85433673  0.75288704  0.87663592     0.34100
H2076       H  0.83284097  0.71884846  0.71422373     0.25900
H2077       H  0.82346850  0.83286176  0.84308615     0.31900
H2078       H  0.89211426  0.82197032  0.93664264     0.37800
H2079       H  0.90369693  0.69430482  0.69439805     0.32200
H2080       H  0.99857638  0.68807634  0.82099741     0.31100
H2081       H  0.00462015  0.73497403  0.86352060     0.32800
H2082       H  0.96549147  0.77777493  0.92284554     0.31800
H2083       H  0.88702239  0.76980257  0.69872179     0.35800
H2084       H  0.93420818  0.84331280  0.75029503     0.28500
H2085       H  0.84391040  0.66291051  0.87640381     0.32700
H2086       H  0.90596004  0.76882111  0.96058527     0.35600
H2087       H  0.97353008  0.66901637  0.80237005     0.28200
H2088       H  0.92512064  0.81180330  0.73081982     0.41100
H2089       H  0.80227110  0.78079230  0.75862915     0.31100
H2090       H  0.83417660  0.75319712  0.72622210     0.38700
H2091       H  0.95441175  0.74509611  0.92753713     0.30600
H2092       H  0.82087981  0.80512382  0.86636369     0.30700
H2093       H  0.84948555  0.69279701  0.89909126     0.30900
C2094       C  0.87611192  0.96511787  0.72014937     0.29900
C2095       C  0.87137826  0.52781620  0.71765313     0.29900
C2096       C  0.89202216  0.98290824  0.75008455    -0.06300
C2097       C  0.88908354  0.97973339  0.69032747    -0.07100
C2098       C  0.84677626  0.97842723  0.71440336    -0.07000
C2099       C  0.88940738  0.51485097  0.74938848    -0.06300
C2100       C  0.88805736  0.51282282  0.68898272    -0.07100
C2101       C  0.84434469  0.50922577  0.71234547    -0.07000
C2102       C  0.90707884  0.52630965  0.77741767    -0.32300
N2103       N  0.91897235  0.00102780  0.79575174     0.14200
C2104       C  0.91137653  0.97520551  0.77749183    -0.32400
H2105       H  0.91814306  0.95226718  0.78436122     0.16100
C2106       C  0.91223129  0.52202318  0.67647426    -0.31300
N2107       N  0.92582155  0.99722873  0.66756229     0.12900
C2108       C  0.91384050  0.97204246  0.67779426    -0.31300
C2109       C  0.81550739  0.51447000  0.70686673    -0.31600
N2110       N  0.80137047  0.98791888  0.70703145     0.13400
H2111       H  0.80500277  0.53650800  0.70513492     0.16000
C2112       C  0.82086115  0.96553738  0.70947315    -0.31600
H2113       H  0.81639901  0.94141093  0.70834707     0.16000
H2114       H  0.92393816  0.94984207  0.67966796     0.16000
H2115       H  0.90934984  0.55004535  0.78540644     0.16100
H2116       H  0.91917250  0.54528539  0.67674088     0.16000
C2117       C  0.01656107  0.53062426  0.61984128     0.29900
C2118       C  0.01569237  0.96676826  0.61592849     0.29900
C2119       C  0.04096451  0.51392549  0.64066134    -0.06300
C2120       C  0.99091791  0.51459544  0.63224088    -0.07100
C2121       C  0.01445889  0.51609762  0.58362456    -0.07000
C2122       C  0.03889883  0.98196412  0.64038165    -0.06300
C2123       C  0.98988155  0.98158779  0.63104694    -0.07100
C2124       C  0.01415348  0.98368182  0.58206723    -0.07000
C2125       C  0.05381673  0.97223113  0.67091746    -0.32300
N2126       N  0.06390009  0.99697360  0.68953571     0.14200
C2127       C  0.05664271  0.52256959  0.67125353    -0.32400
H2128       H  0.05949533  0.54562608  0.68123803     0.16100
C2129       C  0.96701403  0.97255930  0.64584449    -0.31300
N2130       N  0.95125274  0.99753708  0.65310147     0.12900
C2131       C  0.96591083  0.52297214  0.64394406    -0.31300
C2132       C  0.00493677  0.97506362  0.54838033    -0.31600
N2133       N  0.99978201  0.50147038  0.52931078     0.13400
H2134       H  0.00147522  0.95187007  0.53889999     0.16000
C2135       C  0.00368154  0.52605483  0.55119543    -0.31600
H2136       H  0.99827601  0.54940486  0.54454428     0.16000
H2137       H  0.95740675  0.54589355  0.64513390     0.16000
H2138       H  0.05537893  0.94903813  0.67972293     0.16100
H2139       H  0.96255859  0.94953738  0.65184133     0.16000
Zr2140     Zr  0.12214222  0.69917342  0.68063111     2.17500
O2141       O  0.14271501  0.66865643  0.63774711    -0.51400
O2142       O  0.13052147  0.66306308  0.72777094    -0.74600
O2143       O  0.17360734  0.70275402  0.69016013    -0.81400
O2144       O  0.04804863  0.67498115  0.64360305    -0.83200
O2145       O  0.18487484  0.74471051  0.72444756    -0.78800
O2146       O  0.09237638  0.65635696  0.65497787    -0.90400
O2147       O  0.09915609  0.67225034  0.76394616    -0.76400
O2148       O  0.12837334  0.72333757  0.73608285    -0.85900
O2149       O  0.07782602  0.70127657  0.69974358    -0.85600
O2150       O  0.13680341  0.75037937  0.67169531    -0.72300
O2151       O  0.09241342  0.72797914  0.63750600    -0.84500
Zr2152     Zr  0.06977499  0.80188442  0.70565364     2.26400
Zr2153     Zr  0.14302298  0.77401846  0.72790845     2.06300
Zr2154     Zr  0.04809576  0.72898907  0.65721667     2.10000
Zr2155     Zr  0.08393629  0.72469246  0.75480432     1.78800
O2156       O  0.03675164  0.73156829  0.59520063    -0.93300
O2157       O  0.11473988  0.72922773  0.80913279    -0.41100
O2158       O  0.05234261  0.75227337  0.71358615    -0.77700
O2159       O  0.09936736  0.77479257  0.74836300    -0.96400
O2160       O  0.11361189  0.80376839  0.68691632    -0.89700
O2161       O  0.06260980  0.77903902  0.64990368    -0.92500
C2162       C  0.11783337  0.65538154  0.75266953     1.01200
C2163       C  0.06595851  0.65307791  0.64525571     1.14100
C2164       C  0.19132445  0.72122728  0.70706154     1.04900
O2165       O  0.16567668  0.76943454  0.78679841    -0.94700
O2166       O  0.13828485  0.82194296  0.75890525    -0.90400
O2167       O  0.09421126  0.83968942  0.74235727    -0.83600
C2168       C  0.11855730  0.84179438  0.75919742     1.11600
O2169       O  0.13866438  0.76460429  0.59205349    -0.96700
Zr2170     Zr  0.10639467  0.78019824  0.63139980     1.88900
O2171       O  0.06103359  0.84293744  0.66634861    -0.73300
O2172       O  0.17829305  0.80757199  0.71257329    -0.52600
O2173       O  0.14334039  0.81655928  0.63025929    -0.97300
O2174       O  0.08417531  0.77340615  0.57227897    -0.54500
O2175       O  0.07951304  0.82837543  0.61853460    -0.73800
C2176       C  0.06490321  0.84670930  0.63540415     0.98500
O2177       O  0.04881531  0.82785642  0.75071248    -0.62700
O2178       O  0.00216739  0.70733132  0.65499999    -0.57500
O2179       O  0.02165546  0.80751419  0.68619642    -0.94100
O2180       O  0.00788416  0.76184456  0.66199504    -0.92600
O2181       O  0.04424539  0.69635591  0.76697514    -0.92900
O2182       O  0.05860494  0.74817649  0.79807003    -0.91700
C2183       C  0.00292822  0.78888852  0.67354236     1.17300
H2184       H  0.07100398  0.68136930  0.70309352     0.33300
H2185       H  0.10040959  0.78526648  0.77038975     0.44100
H2186       H  0.04840973  0.78915185  0.63438409     0.37700
H2187       H  0.15407826  0.74982212  0.66294520     0.34100
H2188       H  0.10460764  0.71993085  0.82614820     0.25900
H2189       H  0.19436982  0.80511092  0.73082623     0.31900
H2190       H  0.13710312  0.83533949  0.64169862     0.37800
H2191       H  0.03131177  0.69631573  0.74516801     0.32200
H2192       H  0.99754787  0.69836086  0.63158187     0.31100
H2193       H  0.01934397  0.74393138  0.59157905     0.32800
H2194       H  0.09169718  0.78979477  0.55971187     0.31800
H2195       H  0.04634075  0.76376508  0.78568144     0.35800
H2196       H  0.03635375  0.81242400  0.75755821     0.28500
H2197       H  0.15679434  0.65527406  0.65089762     0.32700
H2198       H  0.13853516  0.74201554  0.59176930     0.35600
H2199       H  0.00446892  0.68973395  0.67032975     0.28200
H2200       H  0.03658488  0.84370296  0.73871332     0.41100
H2201       H  0.16957878  0.74731887  0.78958517     0.31100
H2202       H  0.13034067  0.71480780  0.80680195     0.38700
H2203       H  0.06454814  0.77963666  0.57270536     0.30600
H2204       H  0.18441151  0.79792198  0.69182807     0.30700
H2205       H  0.15355949  0.68319798  0.62651850     0.30900
C2206       C  0.11932065  0.96731274  0.80308228     0.29900
C2207       C  0.12219906  0.52978754  0.80176131     0.29900
C2208       C  0.10488076  0.98221605  0.77056221    -0.06300
C2209       C  0.10346020  0.98418400  0.83001335    -0.07100
C2210       C  0.14788305  0.98134920  0.81093783    -0.07000
C2211       C  0.10711579  0.51376701  0.76945720    -0.06300
C2212       C  0.10469932  0.51673364  0.82883769    -0.07100
C2213       C  0.15018467  0.51227240  0.81005709    -0.07000
C2214       C  0.09044805  0.52295291  0.74016265    -0.32300
N2215       N  0.07922874  0.99719370  0.72273176     0.14200
C2216       C  0.08789173  0.97239301  0.74131395    -0.32400
H2217       H  0.08257112  0.94903649  0.73412098     0.16100
C2218       C  0.07960728  0.52678580  0.83943911    -0.31300
N2219       N  0.06438923  0.00262138  0.84826445     0.12900
C2220       C  0.07835989  0.97696865  0.84022655    -0.31300
C2221       C  0.17839820  0.51884621  0.81639913    -0.31600
N2222       N  0.19253172  0.99270872  0.82036954     0.13400
H2223       H  0.18740494  0.54118179  0.81634344     0.16000
C2224       C  0.17451449  0.96952656  0.81786455    -0.31600
H2225       H  0.18047087  0.94559454  0.81916989     0.16000
H2226       H  0.06970251  0.95443815  0.83866007     0.16000
H2227       H  0.08620390  0.54627853  0.73261388     0.16100
H2228       H  0.07183219  0.55007645  0.83913753     0.16000
C2229       C  0.51627727  0.78240330  0.59944679     0.29900
C2230       C  0.51886617  0.71940746  0.59529888     0.29900
C2231       C  0.54046889  0.76670839  0.62165419    -0.06300
C2232       C  0.49131966  0.76582728  0.61238548    -0.07100
C2233       C  0.51570020  0.76784044  0.56369583    -0.07000
C2234       C  0.54181122  0.73526337  0.61975221    -0.06300
C2235       C  0.49262017  0.73326310  0.61009968    -0.07100
C2236       C  0.51736588  0.73629052  0.56173359    -0.07000
C2237       C  0.55815990  0.72584303  0.64932190    -0.32300
N2238       N  0.56731787  0.75083600  0.66827082     0.14200
C2239       C  0.55598861  0.77585243  0.65212816    -0.32400
H2240       H  0.55687803  0.79884668  0.66290388     0.16100
C2241       C  0.47105083  0.72298592  0.62642422    -0.31300
N2242       N  0.45614978  0.74730773  0.63706981     0.12900
C2243       C  0.46906079  0.77322508  0.63004711    -0.31300
C2244       C  0.50791368  0.72765503  0.52834004    -0.31600
N2245       N  0.50140013  0.75305126  0.50978204     0.13400
H2246       H  0.50433666  0.70443795  0.51904989     0.16000
C2247       C  0.50519339  0.77774615  0.53134180    -0.31600
H2248       H  0.49907208  0.80093400  0.52470603     0.16000
H2249       H  0.46362735  0.79558408  0.63927152     0.16000
H2250       H  0.56140226  0.70250322  0.65733743     0.16100
H2251       H  0.46728499  0.69959739  0.63180311     0.16000
Zr2252     Zr  0.61528205  0.95032880  0.66260606     2.17500
O2253       O  0.63633456  0.91826232  0.62151334    -0.51400
O2254       O  0.61622808  0.91189877  0.70685237    -0.74600
O2255       O  0.66706245  0.95117630  0.67666858    -0.81400
O2256       O  0.54079067  0.92922398  0.62204346    -0.83200
O2257       O  0.67928383  0.49570001  0.70682080    -0.78800
O2258       O  0.58412309  0.90920721  0.63636396    -0.90400
O2259       O  0.58933126  0.92831984  0.74650810    -0.76400
O2260       O  0.61988388  0.97577408  0.71739696    -0.85900
O2261       O  0.56970261  0.95505544  0.67805263    -0.85600
O2262       O  0.63173027  0.49978453  0.65572438    -0.72300
O2263       O  0.58901402  0.97962911  0.61705271    -0.84500
Zr2264     Zr  0.56628538  0.55621116  0.68647844     2.26400
Zr2265     Zr  0.63833157  0.52579339  0.71070135     2.06300
Zr2266     Zr  0.54362516  0.98347255  0.63279550     2.10000
Zr2267     Zr  0.57422493  0.97975747  0.73251063     1.78800
O2268       O  0.54163099  0.99006103  0.57143469    -0.93300
O2269       O  0.59753915  0.98119287  0.79154158    -0.41100
O2270       O  0.54602635  0.00742548  0.68859294    -0.77700
O2271       O  0.59461031  0.52952853  0.73090159    -0.96400
O2272       O  0.61039284  0.55510008  0.66801691    -0.89700
O2273       O  0.55882201  0.53152044  0.63182364    -0.92500
C2274       C  0.60457365  0.90812373  0.73378809     1.01200
C2275       C  0.55791682  0.90663082  0.62491941     1.14100
C2276       C  0.68468636  0.97014374  0.69304647     1.04900
O2277       O  0.66336412  0.52162804  0.76852976    -0.94700
O2278       O  0.63437856  0.57381693  0.74189062    -0.90400
O2279       O  0.59270826  0.59466807  0.71963756    -0.83600
C2280       C  0.61599749  0.59533217  0.73909321     1.11600
O2281       O  0.63320229  0.50847749  0.57431851    -0.96700
Zr2282     Zr  0.60287321  0.52933985  0.61368011     1.88900
O2283       O  0.55955558  0.59559095  0.64520216    -0.73300
O2284       O  0.67379393  0.55846290  0.69425807    -0.52600
O2285       O  0.64263886  0.56164001  0.61161258    -0.97300
O2286       O  0.58063320  0.52251989  0.55458222    -0.54500
O2287       O  0.57889967  0.57890104  0.59873562    -0.73800
C2288       C  0.56448781  0.59835067  0.61454060     0.98500
O2289       O  0.54122839  0.58238805  0.72785103    -0.62700
O2290       O  0.49622959  0.96908245  0.61048969    -0.57500
O2291       O  0.51804634  0.56271201  0.66782519    -0.94100
O2292       O  0.50412777  0.01460859  0.64418446    -0.92600
O2293       O  0.53109907  0.95361279  0.73508108    -0.92900
O2294       O  0.54712446  0.00757214  0.77104166    -0.91700
C2295       C  0.49878638  0.54424294  0.65634301     1.17300
H2296       H  0.56154219  0.93579164  0.68159060     0.33300
H2297       H  0.59568741  0.54069694  0.75235922     0.44100
H2298       H  0.54509314  0.54178133  0.61572774     0.37700
H2299       H  0.64931345  0.49776309  0.64705084     0.34100
H2300       H  0.58636601  0.96801217  0.80403662     0.25900
H2301       H  0.69051514  0.55465376  0.71121202     0.31900
H2302       H  0.63743007  0.58166788  0.62134011     0.37800
H2303       H  0.53168184  0.94936665  0.75966658     0.32200
H2304       H  0.49745032  0.95372634  0.59181399     0.31100
H2305       H  0.52610340  0.00480581  0.56541528     0.32800
H2306       H  0.58778876  0.53923460  0.54212666     0.31800
H2307       H  0.54201407  0.52199899  0.76983391     0.35800
H2308       H  0.55253251  0.57936951  0.75051046     0.28500
H2309       H  0.64755506  0.90277642  0.63546713     0.32700
H2310       H  0.63683916  0.48705004  0.58118837     0.35600
H2311       H  0.48962676  0.95787949  0.62906454     0.28200
H2312       H  0.54219517  0.60445216  0.72353534     0.41100
H2313       H  0.66657322  0.49946001  0.77178469     0.31100
H2314       H  0.61518977  0.96962239  0.79095589     0.38700
H2315       H  0.56090567  0.52820720  0.55512660     0.30600
H2316       H  0.67843258  0.54927435  0.67250331     0.30700
H2317       H  0.65006615  0.93129081  0.61296994     0.30900
C2318       C  0.61642554  0.71996182  0.78418802     0.29900
C2319       C  0.61599113  0.78283699  0.78585056     0.29900
C2320       C  0.60459884  0.73549975  0.75117723    -0.06300
C2321       C  0.59778160  0.73508099  0.80887498    -0.07100
C2322       C  0.64419010  0.73506299  0.79592497    -0.07000
C2323       C  0.60556036  0.76672760  0.75141482    -0.06300
C2324       C  0.59811594  0.76735040  0.81099417    -0.07100
C2325       C  0.64488232  0.76676062  0.79729524    -0.07000
C2326       C  0.59269978  0.77588008  0.71968579    -0.32300
N2327       N  0.58305954  0.75082277  0.70118021     0.14200
C2328       C  0.58976529  0.72598094  0.72039460    -0.32400
H2329       H  0.58402876  0.70279286  0.71295501     0.16100
C2330       C  0.57804024  0.77599614  0.83160582    -0.31300
N2331       N  0.56350486  0.75094447  0.83787059     0.12900
C2332       C  0.57505502  0.72621318  0.82334463    -0.31300
C2333       C  0.67285666  0.77345392  0.80878487    -0.31600
N2334       N  0.68805818  0.74678231  0.81261699     0.13400
H2335       H  0.68164632  0.79595376  0.81261960     0.16000
C2336       C  0.67045725  0.72347489  0.80554601    -0.31600
H2337       H  0.67663636  0.69958454  0.80587096     0.16000
H2338       H  0.56645995  0.70362915  0.82122735     0.16000
H2339       H  0.58955840  0.79912613  0.71134740     0.16100
H2340       H  0.57284559  0.79917398  0.83880306     0.16000
C2341       C  0.47341500  0.78205600  0.88525767     0.29900
C2342       C  0.47523618  0.71915091  0.88584483     0.29900
C2343       C  0.44951918  0.76548203  0.86326126    -0.06300
C2344       C  0.49978784  0.76651105  0.87337370    -0.07100
C2345       C  0.47460367  0.76778752  0.92071581    -0.07000
C2346       C  0.45062669  0.73408958  0.86322502    -0.06300
C2347       C  0.50003873  0.73437341  0.87183325    -0.07100
C2348       C  0.47531492  0.73585918  0.92069016    -0.07000
C2349       C  0.42961445  0.72397970  0.83860542    -0.32300
N2350       N  0.41555829  0.74846675  0.82387658     0.15000
C2351       C  0.42763789  0.77405793  0.83887835    -0.32400
H2352       H  0.42252733  0.79713041  0.83088453     0.16100
C2353       C  0.52314037  0.72577281  0.85651050    -0.31300
N2354       N  0.53844792  0.75081815  0.85270078     0.12900
C2355       C  0.52475996  0.77565868  0.86394645    -0.31300
C2356       C  0.48574380  0.72727122  0.95336577    -0.31600
N2357       N  0.49093804  0.75263401  0.97358464     0.13400
H2358       H  0.49110944  0.70415292  0.96094878     0.16000
C2359       C  0.48530026  0.77747064  0.95370378    -0.31600
H2360       H  0.49029720  0.80071604  0.96183350     0.16000
H2361       H  0.53192966  0.79884090  0.86427914     0.16000
H2362       H  0.42611743  0.70049951  0.83074254     0.16100
H2363       H  0.52796627  0.70303771  0.84769240     0.16000
Zr2364     Zr  0.37813155  0.95076237  0.82383159     2.17500
O2365       O  0.36250660  0.92230412  0.86947056    -0.51400
O2366       O  0.36897848  0.90774345  0.78182888    -0.74600
O2367       O  0.32723793  0.95703473  0.82518327    -0.81400
O2368       O  0.45560548  0.92661153  0.84421229    -0.83200
O2369       O  0.31471364  0.50527634  0.81581313    -0.78800
O2370       O  0.41214701  0.91233280  0.85047720    -0.90400
O2371       O  0.37713704  0.92463515  0.73039574    -0.76400
O2372       O  0.35557961  0.98195028  0.77850304    -0.85900
O2373       O  0.41030565  0.94952383  0.78319632    -0.85600
O2374       O  0.37316447  0.50167700  0.84882638    -0.72300
O2375       O  0.42108864  0.97189786  0.85222930    -0.84500
Zr2376     Zr  0.42475952  0.55061719  0.78991271     2.26400
Zr2377     Zr  0.35266961  0.53416330  0.80272157     2.06300
Zr2378     Zr  0.45237360  0.97153056  0.81035154     2.10000
Zr2379     Zr  0.38675558  0.97915528  0.73805887     1.78800
O2380       O  0.49662257  0.97872395  0.84693754    -0.93300
O2381       O  0.33806945  0.98820948  0.71569645    -0.41100
O2382       O  0.42557211  0.99993171  0.77026368    -0.77700
O2383       O  0.38209800  0.53100116  0.75935151    -0.96400
O2384       O  0.39479435  0.55383881  0.83212234    -0.89700
O2385       O  0.44758430  0.52133478  0.83592392    -0.92500
C2386       C  0.37155640  0.90335337  0.74989539     1.01200
C2387       C  0.43886464  0.90818017  0.85460433     1.14100
C2388       C  0.30945600  0.97960648  0.82311146     1.04900
O2389       O  0.30894214  0.54810775  0.76810238    -0.94700
O2390       O  0.35443413  0.58184000  0.76965828    -0.90400
O2391       O  0.39552680  0.59430048  0.79570515    -0.83600
C2392       C  0.37519773  0.59991707  0.77292061     1.11600
O2393       O  0.40867516  0.49610680  0.92807373    -0.96700
Zr2394     Zr  0.41622908  0.52247095  0.87676645     1.88900
O2395       O  0.44905938  0.58606225  0.83127443    -0.73300
O2396       O  0.33893663  0.56814272  0.84759114    -0.52600
O2397       O  0.38788358  0.55086176  0.91343358    -0.97300
O2398       O  0.45922207  0.51285295  0.91526379    -0.54500
O2399       O  0.43674470  0.57347380  0.88252701    -0.73800
C2400       C  0.44768472  0.59148893  0.86313817     0.98500
O2401       O  0.42585528  0.57525147  0.73563481    -0.62700
O2402       O  0.47276642  0.93374285  0.77438264    -0.57500
O2403       O  0.47265995  0.53954463  0.78857551    -0.94100
O2404       O  0.48051773  0.99235100  0.77063437    -0.92600
O2405       O  0.39577370  0.95481486  0.68428981    -0.92900
O2406       O  0.40042752  0.00806519  0.69168485    -0.91700
C2407       C  0.47828457  0.52154911  0.76495019     1.17300
H2408       H  0.41558976  0.92949089  0.77603412     0.33300
H2409       H  0.37517021  0.54290688  0.73974651     0.44100
H2410       H  0.46529853  0.52932016  0.84622575     0.37700
H2411       H  0.36064246  0.50090651  0.86572481     0.34100
H2412       H  0.33835323  0.00130135  0.69572476     0.25900
H2413       H  0.31921000  0.57333866  0.83959767     0.31900
H2414       H  0.40139407  0.56161990  0.93061768     0.37800
H2415       H  0.37733403  0.95375549  0.66992395     0.32200
H2416       H  0.49280350  0.93267522  0.78404002     0.31100
H2417       H  0.50792553  0.96042459  0.84225695     0.32800
H2418       H  0.47229679  0.52837837  0.90988855     0.31800
H2419       H  0.37918844  0.52153786  0.68415145     0.35800
H2420       H  0.43101126  0.59656934  0.74135328     0.28500
H2421       H  0.34711464  0.90955205  0.85816409     0.32700
H2422       H  0.41125077  0.47417861  0.92232529     0.35600
H2423       H  0.46538337  0.91406669  0.77940882     0.28200
H2424       H  0.40660218  0.57635660  0.72358962     0.41100
H2425       H  0.31078878  0.54009310  0.74478281     0.31100
H2426       H  0.33162168  0.96824215  0.70553609     0.38700
H2427       H  0.46656902  0.49330800  0.90668259     0.30600
H2428       H  0.33837695  0.55486165  0.86734061     0.30700
H2429       H  0.35366259  0.93764887  0.88357500     0.30900
C2430       C  0.37962377  0.71234409  0.70394447     0.29900
C2431       C  0.37499894  0.77530531  0.70348905     0.29900
C2432       C  0.38535632  0.72950031  0.73895962    -0.06300
C2433       C  0.39827745  0.72858283  0.68154274    -0.07100
C2434       C  0.35019207  0.72524866  0.69140603    -0.07000
C2435       C  0.38334313  0.76094776  0.73867553    -0.06300
C2436       C  0.39582904  0.76028228  0.68114768    -0.07100
C2437       C  0.34733038  0.75774195  0.69147612    -0.07000
C2438       C  0.39030876  0.77149429  0.77220015    -0.32300
N2439       N  0.39751785  0.74733062  0.79239502     0.14200
C2440       C  0.39262630  0.72169549  0.77276754    -0.32400
H2441       H  0.39554628  0.69909265  0.78250264     0.16100
C2442       C  0.41636567  0.77037416  0.66303259    -0.31300
N2443       N  0.43171947  0.74599231  0.65335466     0.12900
C2444       C  0.42029841  0.72032979  0.66382443    -0.31300
C2445       C  0.32010875  0.76364377  0.69808263    -0.31600
N2446       N  0.30666264  0.73704396  0.69962666     0.13400
H2447       H  0.31134630  0.78566834  0.70416393     0.16000
C2448       C  0.32501778  0.71406266  0.69748542    -0.31600
H2449       H  0.32067680  0.69092174  0.70334758     0.16000
H2450       H  0.42817174  0.69734624  0.66044994     0.16000
H2451       H  0.39180279  0.79502988  0.78097656     0.16100
H2452       H  0.42055785  0.79398279  0.65886838     0.16000
C2453       C  0.39641961  0.85346729  0.74315899    -0.02000
C2454       C  0.37202445  0.87135535  0.73552490     0.07700
C2455       C  0.35096277  0.86031992  0.71004217    -0.02100
C2456       C  0.35316969  0.83055029  0.69514311    -0.02100
C2457       C  0.37588122  0.81085451  0.70701627     0.07900
C2458       C  0.39924522  0.82470759  0.72705697    -0.02300
Br2459     Br  0.43552043  0.80457335  0.73449116    -0.00800
Br2460     Br  0.42611077  0.86744015  0.77708515    -0.00900
Br2461     Br  0.32948390  0.82075587  0.65291791    -0.00800
Br2462     Br  0.31889515  0.88592758  0.69610521    -0.00800
C2463       C  0.40229498  0.64455776  0.75451271    -0.02000
C2464       C  0.37796718  0.62612715  0.74913304     0.07700
C2465       C  0.35955253  0.63064290  0.71805004    -0.02100
C2466       C  0.36302103  0.65586870  0.69721725    -0.02100
C2467       C  0.38399792  0.67729406  0.70784298     0.07900
C2468       C  0.40660837  0.66695304  0.73109445    -0.02300
Br2469     Br  0.44197820  0.68744816  0.73557981    -0.00800
Br2470     Br  0.42980478  0.64338850  0.79500934    -0.00900
Br2471     Br  0.34299734  0.65797090  0.65129078    -0.00800
Br2472     Br  0.32979010  0.60295294  0.70278637    -0.00800
C2473       C  0.47825729  0.83352360  0.85746230    -0.02000
C2474       C  0.46770535  0.81676878  0.88268235     0.07700
C2475       C  0.44642180  0.83153807  0.89925592    -0.02100
C2476       C  0.43847995  0.86236724  0.89258890    -0.02100
C2477       C  0.45143333  0.87906624  0.86951964     0.07900
C2478       C  0.47421155  0.86506105  0.85610799    -0.02300
Br2479     Br  0.50122328  0.88697421  0.83555459    -0.00800
Br2480     Br  0.48602742  0.81479008  0.81472537    -0.00900
Br2481     Br  0.41141732  0.88248074  0.91738034    -0.00800
Br2482     Br  0.42339938  0.80909323  0.92560343    -0.00800
C2483       C  0.49213065  0.66186364  0.88511954    -0.02000
C2484       C  0.47121993  0.68428813  0.88849096     0.07700
C2485       C  0.44507350  0.67355060  0.89521419    -0.02100
C2486       C  0.43793202  0.64279059  0.88849938    -0.02100
C2487       C  0.45724697  0.62185840  0.87723638     0.07900
C2488       C  0.48474872  0.63119382  0.87700226    -0.02300
Br2489     Br  0.51257744  0.60159626  0.86708559    -0.00800
Br2490     Br  0.53013255  0.66948296  0.90409289    -0.00900
Br2491     Br  0.40053053  0.63019691  0.89143460    -0.00800
Br2492     Br  0.41856453  0.70010012  0.91463360    -0.00800
C2493       C  0.47808425  0.56440762  0.72371164    -0.02000
C2494       C  0.47440691  0.53280945  0.72957155     0.07700
C2495       C  0.46163182  0.51415800  0.70156490    -0.02100
C2496       C  0.45573159  0.52693728  0.66888214    -0.02100
C2497       C  0.47046858  0.55281473  0.66344371     0.07900
C2498       C  0.47144374  0.57487138  0.68999979    -0.02300
Br2499     Br  0.47354243  0.61714007  0.67930652    -0.00800
Br2500     Br  0.49012388  0.59382000  0.76030720    -0.00900
Br2501     Br  0.43701262  0.50507500  0.62959359    -0.00800
Br2502     Br  0.45380364  0.47165148  0.70567036    -0.00800
C2503       C  0.63380891  0.86269314  0.75495410    -0.02000
C2504       C  0.60800541  0.87804101  0.75080023     0.07700
C2505       C  0.58462430  0.86282103  0.75886682    -0.02100
C2506       C  0.58732569  0.83310875  0.77235689    -0.02100
C2507       C  0.61394461  0.81769621  0.77852182     0.07900
C2508       C  0.63577747  0.83186861  0.76418995    -0.02300
Br2509     Br  0.66234703  0.80846159  0.74149322    -0.00800
Br2510     Br  0.66662754  0.88298952  0.74530869    -0.00900
Br2511     Br  0.55258789  0.81182589  0.77061213    -0.00800
Br2512     Br  0.54779211  0.88062252  0.74611016    -0.00800
C2513       C  0.63361776  0.64614211  0.73714755    -0.02000
C2514       C  0.62265770  0.62440535  0.75615927     0.07700
C2515       C  0.61437622  0.63216546  0.78804977    -0.02100
C2516       C  0.61519088  0.66280708  0.79983991    -0.02100
C2517       C  0.62122783  0.68577426  0.77766584     0.07900
C2518       C  0.63414632  0.67649295  0.74841727    -0.02300
Br2519     Br  0.65295021  0.70403309  0.72216244    -0.00800
Br2520     Br  0.64515582  0.63448138  0.69333935    -0.00900
Br2521     Br  0.61487609  0.67108094  0.84804304    -0.00800
Br2522     Br  0.60090272  0.60100058  0.81458095    -0.00800
C2523       C  0.51843610  0.86879735  0.61995478    -0.02000
C2524       C  0.54602846  0.87586233  0.61507581     0.07700
C2525       C  0.56119040  0.85396313  0.59825231    -0.02100
C2526       C  0.55067761  0.82444993  0.59089810    -0.02100
C2527       C  0.52385311  0.81655165  0.59892117     0.07900
C2528       C  0.50677974  0.84052081  0.60847051    -0.02300
Br2529     Br  0.46733827  0.83909501  0.59452571    -0.00800
Br2530     Br  0.49630404  0.89571691  0.64508813    -0.00900
Br2531     Br  0.57434505  0.79544677  0.56985665    -0.00800
Br2532     Br  0.59610622  0.86436702  0.58378142    -0.00800
C2533       C  0.55631238  0.67920527  0.58429946    -0.02000
C2534       C  0.52818808  0.68565843  0.58986526     0.07700
C2535       C  0.51075578  0.66033944  0.58945447    -0.02100
C2536       C  0.52263190  0.63067083  0.59377288    -0.02100
C2537       C  0.55174809  0.62600807  0.59745182     0.07900
C2538       C  0.56832137  0.65000650  0.59043627    -0.02300
Br2539     Br  0.60785096  0.64352339  0.59210442    -0.00800
Br2540     Br  0.57919757  0.70950007  0.56774690    -0.00900
Br2541     Br  0.49911264  0.59590508  0.59306215    -0.00800
Br2542     Br  0.47152107  0.66459705  0.57449136    -0.00800
C2543       C  0.24005432  0.48396533  0.85373408    -0.02000
C2544       C  0.22214009  0.98821349  0.82182566     0.07700
C2545       C  0.23372774  0.98369891  0.79130715    -0.02100
C2546       C  0.26200995  0.97603370  0.79232475    -0.02100
C2547       C  0.27961758  0.97471395  0.82389386     0.07900
C2548       C  0.26875947  0.47742916  0.85461430    -0.02300
Br2549     Br  0.29312313  0.47673931  0.89764791    -0.00800
Br2550     Br  0.22434978  0.49001657  0.89552678    -0.00900
Br2551     Br  0.27734462  0.96952609  0.75005816    -0.00800
Br2552     Br  0.21152210  0.99030671  0.74788211    -0.00800
C2553       C  0.24114789  0.71635996  0.73383779    -0.02000
C2554       C  0.22131791  0.71839517  0.70403478     0.07700
C2555       C  0.23019832  0.72595659  0.67284686    -0.02100
C2556       C  0.25824812  0.73271925  0.67184739    -0.02100
C2557       C  0.27770175  0.73251348  0.70193488     0.07900
C2558       C  0.26926026  0.72323150  0.73273363    -0.02300
Br2559     Br  0.29635445  0.72021269  0.77323003    -0.00800
Br2560     Br  0.22954935  0.70389377  0.77600704    -0.00900
Br2561     Br  0.27057413  0.74152976  0.62898269    -0.00800
Br2562     Br  0.20371183  0.72895256  0.63165615    -0.00800
C2563       C  0.11662463  0.91014292  0.81881207    -0.02000
C2564       C  0.12310894  0.93290132  0.79659828     0.07700
C2565       C  0.13527586  0.92323608  0.76677261    -0.02100
C2566       C  0.13606785  0.89253807  0.75693835    -0.02100
C2567       C  0.12482829  0.87109982  0.77603689     0.07900
C2568       C  0.11565076  0.87940460  0.80726157    -0.02300
Br2569     Br  0.10133092  0.84859570  0.83351981    -0.00800
Br2570     Br  0.11494734  0.91874131  0.86664630    -0.00900
Br2571     Br  0.14991319  0.87976133  0.71475442    -0.00800
Br2572     Br  0.15093345  0.95074020  0.73718470    -0.00800
C2573       C  0.11969968  0.61894596  0.80277872    -0.02000
C2574       C  0.12415181  0.62462246  0.76853356     0.07700
C2575       C  0.13385990  0.60001432  0.74916225    -0.02100
C2576       C  0.13690852  0.57058622  0.76269839    -0.02100
C2577       C  0.12670682  0.56376934  0.79388047     0.07900
C2578       C  0.12119052  0.58879507  0.81536079    -0.02300
Br2579     Br  0.12141905  0.58297339  0.86366884    -0.00800
Br2580     Br  0.11285717  0.65219930  0.83388081    -0.00900
Br2581     Br  0.15506682  0.53993065  0.73664875    -0.00800
Br2582     Br  0.14098782  0.60457137  0.70231365    -0.00800
C2583       C  0.00890685  0.90699702  0.61142240    -0.02000
C2584       C  0.02542177  0.93298826  0.61052749     0.07700
C2585       C  0.05360348  0.92728497  0.60449763    -0.02100
C2586       C  0.06668321  0.89879071  0.61170310    -0.02100
C2587       C  0.05101433  0.87423626  0.61916124     0.07900
C2588       C  0.02179496  0.87766389  0.61523552    -0.02300
Br2589     Br  0.99980513  0.84148181  0.61132187    -0.00800
Br2590     Br  0.96930457  0.90989880  0.59950301    -0.00900
Br2591     Br  0.10641145  0.89393922  0.61368159    -0.00800
Br2592     Br  0.07534212  0.95775754  0.58626621    -0.00800
C2593       C  0.06035436  0.60329242  0.61128795    -0.02000
C2594       C  0.05394171  0.62208565  0.63836731     0.07700
C2595       C  0.03487590  0.61186486  0.65904561    -0.02100
C2596       C  0.02089828  0.58392379  0.65167389    -0.02100
C2597       C  0.02543876  0.56500568  0.62267617     0.07900
C2598       C  0.04759006  0.57456108  0.60446168    -0.02300
Br2599     Br  0.06647322  0.54740377  0.57508394    -0.00800
Br2600     Br  0.08813541  0.61672157  0.58472094    -0.00900
Br2601     Br  0.00177262  0.56976372  0.68766108    -0.00800
Br2602     Br  0.03090333  0.63456801  0.70103032    -0.00800
C2603       C  0.75596236  0.98234332  0.67042947    -0.02000
C2604       C  0.77194960  0.98209641  0.70313314     0.07700
C2605       C  0.75984712  0.97156532  0.73098035    -0.02100
C2606       C  0.73153020  0.96404848  0.72679982    -0.02100
C2607       C  0.71509085  0.96576367  0.69438766     0.07900
C2608       C  0.72769629  0.97416117  0.66599649    -0.02300
Br2609     Br  0.70569666  0.97657902  0.62142119    -0.00800
Br2610     Br  0.77327758  0.99365030  0.63185459    -0.00900
Br2611     Br  0.71454862  0.95319862  0.76603093    -0.00800
Br2612     Br  0.78178648  0.96791449  0.77520368    -0.00800
C2613       C  0.75920305  0.72385218  0.79371762    -0.02000
C2614       C  0.77454465  0.72232190  0.82683891     0.07700
C2615       C  0.76094496  0.72958473  0.85544042    -0.02100
C2616       C  0.73252173  0.73856621  0.85081261    -0.02100
C2617       C  0.71784449  0.74197973  0.81761688     0.07900
C2618       C  0.73151019  0.73475028  0.78914614    -0.02300
Br2619     Br  0.71312860  0.74247388  0.74374449    -0.00800
Br2620     Br  0.77730334  0.71352887  0.75424565    -0.00900
Br2621     Br  0.71358115  0.74752703  0.88958178    -0.00800
Br2622     Br  0.78190634  0.72917230  0.90070472    -0.00800
C2623       C  0.96733416  0.76058978  0.71958660    -0.02000
C2624       C  0.97700051  0.78195904  0.74661190     0.07700
C2625       C  0.97897782  0.81327141  0.73812568    -0.02100
C2626       C  0.97340911  0.82103219  0.70331868    -0.02100
C2627       C  0.97410579  0.79725974  0.67882872     0.07900
C2628       C  0.96045299  0.77126369  0.68609231    -0.02300
Br2629     Br  0.94355971  0.74605159  0.64841731    -0.00800
Br2630     Br  0.96813216  0.71707823  0.72504813    -0.00900
Br2631     Br  0.97272264  0.86254022  0.68902667    -0.00800
Br2632     Br  0.98889080  0.84557402  0.77230242    -0.00800
C2633       C  0.84998918  0.60051608  0.76687427    -0.02000
C2634       C  0.85807874  0.62414423  0.74726769     0.07700
C2635       C  0.86243625  0.61649274  0.71288771    -0.02100
C2636       C  0.86552948  0.58553204  0.70206010    -0.02100
C2637       C  0.86404953  0.56183912  0.72511986     0.07900
C2638       C  0.85281499  0.56982864  0.75608997    -0.02300
Br2639     Br  0.83995329  0.53962302  0.78493925    -0.00800
Br2640     Br  0.83191844  0.60990379  0.80688036    -0.00900
Br2641     Br  0.86652857  0.57595652  0.65419856    -0.00800
Br2642     Br  0.86060123  0.64726360  0.67844191    -0.00800
C2643       C  0.87293508  0.90635330  0.70763345    -0.02000
C2644       C  0.87227518  0.93192611  0.73042298     0.07700
C2645       C  0.86102498  0.92749918  0.76206714    -0.02100
C2646       C  0.85405870  0.89857203  0.77139331    -0.02100
C2647       C  0.85873004  0.87338814  0.75085937     0.07900
C2648       C  0.86684819  0.87711587  0.71839544    -0.02300
Br2649     Br  0.86911097  0.84158257  0.68882219    -0.00800
Br2650     Br  0.87907565  0.91036824  0.66087582    -0.00900
Br2651     Br  0.84024794  0.89232116  0.81448476    -0.00800
Br2652     Br  0.85247100  0.95994952  0.79393020    -0.00800
C2653       C  0.94235654  0.57711058  0.90834317    -0.02000
C2654       C  0.97057282  0.56900523  0.90596669     0.07700
C2655       C  0.98839923  0.59298545  0.90252879    -0.02100
C2656       C  0.97742839  0.62184100  0.89109923    -0.02100
C2657       C  0.94789592  0.62777151  0.88506088     0.07900
C2658       C  0.93077703  0.60523253  0.89607457    -0.02300
Br2659     Br  0.89091851  0.61046320  0.89350553    -0.00800
Br2660     Br  0.91875439  0.54955114  0.92828389    -0.00900
Br2661     Br  0.00446047  0.65211453  0.88497441    -0.00800
Br2662     Br  0.02669015  0.58896511  0.92311225    -0.00800
C2663       C  0.99166855  0.91198141  0.89785992    -0.02000
C2664       C  0.97300097  0.93625138  0.90351453     0.07700
C2665       C  0.94534477  0.92794904  0.90786400    -0.02100
C2666       C  0.93559505  0.89826508  0.89918356    -0.02100
C2667       C  0.95320516  0.87579617  0.88746004     0.07900
C2668       C  0.98145680  0.88254563  0.88752915    -0.02300
Br2669     Br  0.00623887  0.85124646  0.87349734    -0.00800
Br2670     Br  0.03068795  0.91555415  0.91400655    -0.00900
Br2671     Br  0.89700938  0.88907560  0.90011214    -0.00800
Br2672     Br  0.91947817  0.95677339  0.92519256    -0.00800
loop_ 
_geom_bond_atom_site_label_1 
_geom_bond_atom_site_label_2 
_geom_bond_distance 
_geom_bond_site_symmetry_2 
_ccdc_geom_bond_type 
C1            C3   1.534       .  S
C1            C5   1.541       .  S
C1            C4   1.575   1_655  S
C1          C650   1.560       .  S
C2            C6   1.531       .  S
C2            C8   1.534       .  S
C2            C7   1.572   1_655  S
C2          C660   1.564       .  S
C3           C11   1.385       .  A
C3         C1342   1.385   1_545  A
C4           C15   1.399       .  A
C4         C1343   1.429   1_545  A
C5           C19   1.390       .  A
C5         C1344   1.390   1_545  A
C6            C9   1.377       .  A
C6         C1339   1.385       .  A
C7           C13   1.388       .  A
C7         C1340   1.427       .  A
C8           C16   1.382       .  A
C8         C1341   1.387       .  A
C9           N10   1.354       .  A
C9           H22   1.081       .  S
N10        C1347   1.350       .  A
N10          N99   1.411       .  S
C11        N1346   1.351       .  A
C11          H12   1.082       .  S
C13          N14   1.362       .  A
C13          H23   1.077       .  S
N14        C1351   1.362       .  A
N14         N215   1.427       .  S
C15        N1350   1.363       .  A
C15          H21   1.080       .  S
C16        N1353   1.359       .  A
C16          H18   1.081       .  S
N17          C19   1.362       .  A
N17        C1352   1.358   1_545  A
N17         N797   1.420       .  S
C19          H20   1.081       .  S
Zr24         O25   2.437       .  S
Zr24         O26   2.486       .  S
Zr24         O27   2.503       .  S
Zr24         O30   2.488       .  S
Zr24         O32   2.387       .  S
Zr24         O33   2.383       .  S
Zr24         O34   2.429       .  S
Zr24         O35   2.420       .  S
O25          H81   0.991       .  S
O25          H89   0.990       .  S
O26          C46   1.295       .  A
O27          C48   1.298       .  A
O28         Zr38   2.429       .  S
O28          C47   1.280       .  A
O29         Zr37   2.376       .  S
O29          C48   1.274       .  A
O30          C47   1.296       .  A
O31         Zr39   2.408       .  S
O31          C46   1.274       .  A
O32         Zr37   2.415       .  S
O32         Zr39   2.367       .  S
O33         Zr38   2.400       .  S
O33         Zr39   2.379       .  S
O33          H68   0.965       .  S
O34         Zr37   2.405       .  S
O34         Zr54   2.413       .  S
O34          H71   0.968       .  S
O35         Zr38   2.404       .  S
O35         Zr54   2.418       .  S
Zr36         O61   2.439       .  S
Zr36         O55   2.427       .  S
Zr36         O63   2.392       .  S
Zr36         O51   2.371       .  S
Zr36         O42   2.407       .  S
Zr36         O43   2.391       .  S
Zr36         O44   2.364       .  S
Zr36         O45   2.380       .  S
Zr37         O56   2.435       .  S
Zr37         O49   2.434       .  S
Zr37         O50   2.463       .  S
Zr37         O43   2.365       .  S
Zr37         O44   2.372       .  S
Zr38         O40   2.435       .  S
Zr38         O62   2.438       .  S
Zr38         O64   2.444       .  S
Zr38         O42   2.401       .  S
Zr38         O45   2.395       .  S
Zr39         O65   2.431       .  S
Zr39         O66   2.432       .  S
Zr39         O41   2.438       .  S
Zr39         O42   2.389       .  S
Zr39         O43   2.377       .  S
O40          H77   0.990   1_655  S
O41          H72   0.990       .  S
O41          H86   0.990       .  S
O43          H69   0.957       .  S
O44         Zr54   2.374       .  S
O45         Zr54   2.365       .  S
O45          H70   0.966       .  S
C46         C630   1.519       .  S
C47         C653   1.529       .  S
C48         C610   1.478       .  S
O49          H85   0.990       .  S
O50          C52   1.289       .  A
O51          C52   1.273       .  A
C52         C643   1.456       .  S
O53         Zr54   2.440       .  S
O53          H82   0.990       .  S
Zr54         O57   2.437       .  S
Zr54         O58   2.437       .  S
Zr54         O59   2.481       .  S
O55          C60   1.283       .  A
O56          H73   0.990       .  S
O56          H88   0.990       .  S
O57          H74   0.990       .  S
O58          H78   0.990       .  S
O58          H87   0.990       .  S
O59          C60   1.294       .  A
C60         C663   1.495       .  S
O61          H80   0.986       .  S
O61          H84   0.986       .  S
O62          H76   0.989       .  S
O62          H83   0.990       .  S
O63          C67   1.262       .  A
O64          C67   1.277       .  A
O65          H75   0.990       .  S
O66          H79   0.988       .  S
C67         C620   1.479       .  S
C90          C92   1.516       .  S
C90          C94   1.517       .  S
C90          C93   1.571       .  S
C90         C640   1.546       .  S
C91          C95   1.538       .  S
C91          C97   1.547       .  S
C91          C96   1.597       .  S
C91         C633   1.558       .  S
C92         C100   1.370       .  A
C92        C1431   1.372       .  A
C93         C104   1.396       .  A
C93        C1432   1.447       .  A
C94         C108   1.380       .  A
C94        C1433   1.364       .  A
C95          C98   1.386       .  A
C95        C1428   1.373   1_545  A
C96         C102   1.406       .  A
C96        C1429   1.449   1_545  A
C97         C105   1.403       .  A
C97        C1430   1.364   1_545  A
C98        N1435   1.361   1_545  A
C98         H111   1.081       .  S
N99         C100   1.351       .  A
N99        C1434   1.362       .  A
C100        H101   1.081       .  S
C102       N1439   1.366   1_545  A
C102        H112   1.081       .  S
N103        C104   1.359       .  A
N103       C1438   1.366       .  A
N103        N126   1.436       .  S
C104        H110   1.080       .  S
C105       N1442   1.368   1_545  A
C105        H107   1.082       .  S
N106        C108   1.345       .  A
N106       C1441   1.369       .  A
N106        C600   1.449       .  S
C108        H109   1.083       .  S
C113        C115   1.529       .  S
C113        C117   1.539       .  S
C113        C116   1.584   1_455  S
C113        C593   1.569       .  S
C114        C118   1.524       .  S
C114        C120   1.538       .  S
C114        C119   1.581   1_455  S
C114        C580   1.562       .  S
C115        C123   1.380       .  A
C115       C1454   1.377   1_545  A
C116        C127   1.396       .  A
C116       C1455   1.428   1_545  A
C117        C131   1.391       .  A
C117       C1456   1.388   1_545  A
C118        C121   1.387       .  A
C118       C1451   1.380       .  A
C119        C125   1.396       .  A
C119       C1452   1.428       .  A
C120        C128   1.385       .  A
C120       C1453   1.388       .  A
C121        N122   1.351       .  A
C121        H134   1.082       .  S
N122       C1459   1.346       .  A
N122        N211   1.409       .  S
C123       N1458   1.347   1_545  A
C123        H124   1.078       .  S
C125        N126   1.368       .  A
C125        H135   1.077       .  S
N126       C1463   1.367       .  A
C127       N1462   1.364   1_545  A
C127        H133   1.080       .  S
C128       N1465   1.359   1_455  A
C128        H130   1.081       .  S
N129        C131   1.360       .  A
N129       C1464   1.360   1_545  A
N129        N685   1.421   1_454  S
C131        H132   1.081   1_455  S
Zr136       O137   2.439       .  S
Zr136       O138   2.466       .  S
Zr136       O139   2.507       .  S
Zr136       O142   2.496       .  S
Zr136       O144   2.382       .  S
Zr136       O145   2.390       .  S
Zr136       O146   2.423       .  S
Zr136       O147   2.440       .  S
O137        H193   0.990       .  S
O137        H201   0.990       .  S
O138        C158   1.291       .  A
O139        C160   1.298       .  A
O140       Zr150   2.412       .  S
O140        C159   1.278       .  A
O141       Zr149   2.398       .  S
O141        C160   1.276       .  A
O142        C159   1.298       .  A
O143       Zr151   2.424       .  S
O143        C158   1.279       .  A
O144       Zr149   2.396       .  S
O144       Zr151   2.389       .  S
O145       Zr150   2.391       .  S
O145       Zr151   2.353       .  S
O145        H180   0.961       .  S
O146       Zr149   2.400       .  S
O146       Zr166   2.414       .  S
O146        H183   0.962       .  S
O147       Zr150   2.393       .  S
O147       Zr166   2.432       .  S
Zr148       O173   2.417       .  S
Zr148       O167   2.399       .  S
Zr148       O175   2.367       .  S
Zr148       O163   2.391       .  S
Zr148       O154   2.401       .  S
Zr148       O155   2.380       .  S
Zr148       O156   2.359       .  S
Zr148       O157   2.373       .  S
Zr149       O168   2.437       .  S
Zr149       O161   2.435       .  S
Zr149       O162   2.424       .  S
Zr149       O155   2.378       .  S
Zr149       O156   2.396       .  S
Zr150       O152   2.433       .  S
Zr150       O174   2.438       .  S
Zr150       O176   2.427       .  S
Zr150       O154   2.399       .  S
Zr150       O157   2.356       .  S
Zr151       O177   2.437       .  S
Zr151       O178   2.436       .  S
Zr151       O153   2.436       .  S
Zr151       O154   2.400       .  S
Zr151       O155   2.372       .  S
O152        H189   0.990       .  S
O153        H184   0.990       .  S
O153        H198   0.990       .  S
O155        H181   0.967       .  S
O156       Zr166   2.376       .  S
O157       Zr166   2.346       .  S
O157        H182   0.964       .  S
C158        C570   1.508       .  S
C159        C590   1.491       .  S
C160        C550   1.491       .  S
O161        H197   0.990       .  S
O162        C164   1.282       .  A
O163        C164   1.277       .  A
C164        C563   1.449       .  S
O165       Zr166   2.435       .  S
O165        H194   0.990       .  S
Zr166       O169   2.434       .  S
Zr166       O170   2.437       .  S
Zr166       O171   2.498       .  S
O167        C172   1.277       .  A
O168        H185   0.990       .  S
O168        H200   0.990       .  S
O169        H186   0.990       .  S
O170        H190   0.990       .  S
O170        H199   0.990       .  S
O171        C172   1.296       .  A
C172        C583   1.491       .  S
O173        H192   0.988       .  S
O173        H196   0.989       .  S
O174        H188   0.990   1_455  S
O174        H195   0.989       .  S
O175        C179   1.273       .  A
O176        C179   1.288       .  A
O177        H187   0.990       .  S
O178        H191   0.990       .  S
C179        C623   1.481   1_455  S
C202        C204   1.526       .  S
C202        C206   1.520       .  S
C202        C205   1.562       .  S
C202        C560   1.535       .  S
C203        C207   1.535       .  S
C203        C209   1.545       .  S
C203        C208   1.586       .  S
C203        C573   1.553       .  S
C204        C212   1.382       .  A
C204       C1543   1.372       .  A
C205        C216   1.387       .  A
C205       C1544   1.442       .  A
C206        C220   1.378       .  A
C206       C1545   1.371       .  A
C207        C210   1.377       .  A
C207       C1540   1.373   1_545  A
C208        C214   1.407       .  A
C208       C1541   1.441   1_545  A
C209        C217   1.397       .  A
C209       C1542   1.373   1_545  A
C210       N1547   1.356   1_545  A
C210        H223   1.080       .  S
N211        C212   1.353       .  A
N211       C1546   1.356       .  A
C212        H213   1.081       .  S
C214       N1551   1.364       .  A
C214        H224   1.081       .  S
N215        C216   1.355       .  A
N215       C1550   1.363       .  A
C216        H222   1.080       .  S
C217       N1554   1.365   1_545  A
C217        H219   1.082       .  S
N218        C220   1.350       .  A
N218       C1553   1.365       .  A
N218        C540   1.443       .  S
C220        H221   1.083       .  S
C225        C227   1.531       .  S
C225        C229   1.531       .  S
C225        C228   1.580       .  S
C225        C523   1.553       .  S
C226        C230   1.533       .  S
C226        C232   1.527       .  S
C226        C231   1.578       .  S
C226        C530   1.554       .  S
C227        C235   1.383       .  A
C227        C230   1.382       .  A
C228        C239   1.395       .  A
C228        C231   1.427       .  A
C229        C243   1.384       .  A
C229        C232   1.383       .  A
C230        C233   1.382       .  A
C231        C237   1.396       .  A
C232        C240   1.377       .  A
C233        N234   1.354       .  A
C233        H246   1.081       .  S
N234        C235   1.353       .  A
N234        N323   1.412       .  S
C235        H236   1.082       .  S
C237        N238   1.364       .  A
C237        H247   1.078       .  S
N238        C239   1.364       .  A
N238        N439   1.431       .  S
C239        H245   1.075       .  S
C240        N241   1.357       .  A
C240        H242   1.081       .  S
N241        C243   1.358       .  A
N241       N1021   1.414   1_554  S
C243        H244   1.082       .  S
Zr248       O249   2.436       .  S
Zr248       O250   2.450       .  S
Zr248       O251   2.506       .  S
Zr248       O254   2.501       .  S
Zr248       O256   2.388       .  S
Zr248       O257   2.381       .  S
Zr248       O259   2.425       .  S
Zr248      O1594   2.421       .  S
O249        H305   0.990       .  S
O249        H313   0.990       .  S
O250        C270   1.289       .  A
O251        C272   1.299       .  A
O252       Zr262   2.410       .  S
O252        C271   1.280       .  A
O253       Zr261   2.381   1_565  S
O253       C1608   1.275       .  A
O254        C271   1.300       .  A
O255       Zr263   2.406       .  S
O255        C270   1.279       .  A
O256       Zr263   2.383       .  S
O256      Zr1597   2.396       .  S
O257       Zr262   2.391       .  S
O257       Zr263   2.365       .  S
O257        H292   0.965       .  S
O258       Zr261   2.398       .  S
O258       Zr278   2.407       .  S
O258      Zr1584   2.416   1_545  S
O258        H295   0.972   1_545  S
O259       Zr262   2.392       .  S
O259      Zr1614   2.425       .  S
Zr260       O285   2.431       .  S
Zr260       O279   2.396       .  S
Zr260       O287   2.372       .  S
Zr260       O275   2.396       .  S
Zr260       O267   2.389       .  S
Zr260       O268   2.361       .  S
Zr260       O269   2.374       .  S
Zr260      O1602   2.384       .  S
Zr261       O280   2.437       .  S
Zr261       O273   2.434       .  S
Zr261       O274   2.409       .  S
Zr261       O267   2.382       .  S
Zr261       O268   2.391       .  S
Zr261      O1592   2.389   1_545  S
Zr262       O264   2.434       .  S
Zr262       O286   2.414       .  S
Zr262       O288   2.427       .  S
Zr262       O266   2.392       .  S
Zr262      O1605   2.363       .  S
Zr263       O289   2.434       .  S
Zr263       O290   2.437       .  S
Zr263       O265   2.436       .  S
Zr263       O266   2.388       .  S
Zr263      O1603   2.371       .  S
O264        H301   0.990       .  S
O265        H296   0.990       .  S
O265        H310   0.990       .  S
O266      Zr1596   2.379       .  S
O267      Zr1599   2.378   1_545  S
O267        H293   0.961       .  S
O268       Zr278   2.373       .  S
O269       Zr278   2.350       .  S
O269      Zr1598   2.367   1_545  S
O269        H294   0.965       .  S
C270        C500   1.483       .  S
C271        C520   1.506       .  S
C272       O1589   1.274       .  A
C272        C603   1.483       .  S
O273        H309   0.990       .  S
O274        C276   1.279       .  A
O275        C276   1.275       .  A
C276        C510   1.443       .  S
O277       Zr278   2.434       .  S
O277        H306   0.990   1_545  S
Zr278       O281   2.435       .  S
Zr278       O282   2.437       .  S
Zr278       O283   2.480       .  S
Zr278      O1595   2.423   1_545  S
O279        C284   1.276       .  A
O280        H297   0.990       .  S
O280        H312   0.990       .  S
O281        H298   0.990       .  S
O282        H302   0.990       .  S
O282        H311   0.990       .  S
O283        C284   1.292       .  A
C284        C533   1.481       .  S
O285        H304   0.990       .  S
O285        H308   0.991       .  S
O286        H300   0.990       .  S
O286        H307   0.988       .  S
O287        C291   1.279       .  A
O288       C1627   1.286       .  A
O289        H299   0.990       .  S
O290       H1639   0.990       .  S
C291       O1624   1.283       .  A
C291        C493   1.482       .  S
H303       O1626   0.990       .  S
C314        C316   1.521       .  S
C314        C318   1.524       .  S
C314        C317   1.554       .  S
C314        C513   1.530       .  S
C315        C319   1.539       .  S
C315        C321   1.563       .  S
C315        C320   1.581       .  S
C315        C503   1.551       .  S
C316        C324   1.379       .  A
C316        C319   1.371       .  A
C317        C328   1.386       .  A
C317        C320   1.416       .  A
C318        C332   1.372       .  A
C318        C321   1.385       .  A
C319        C322   1.386       .  A
C320        C326   1.395       .  A
C321        C329   1.403       .  A
C322        N323   1.356       .  A
C322        H335   1.081       .  S
N323        C324   1.354       .  A
C324        H325   1.081       .  S
C326        N327   1.365       .  A
C326        H336   1.081       .  S
N327        C328   1.361       .  A
N327        N350   1.427       .  S
C328        H334   1.080       .  S
C329        N330   1.367       .  A
C329        H331   1.082       .  S
N330        C332   1.346       .  A
N330        C613   1.443       .  S
C332        H333   1.083       .  S
C337        C339   1.527       .  S
C337        C341   1.540       .  S
C337        C340   1.569       .  S
C337        C470   1.549       .  S
C338        C342   1.532       .  S
C338        C344   1.534       .  S
C338        C343   1.567       .  S
C338        C480   1.554       .  S
C339        C347   1.381       .  A
C339        C342   1.375       .  A
C340        C351   1.392       .  A
C340        C343   1.412       .  A
C341        C355   1.384       .  A
C341        C344   1.398       .  A
C342        C345   1.373       .  A
C343        C349   1.390       .  A
C344        C352   1.374       .  A
C345        N346   1.358       .  A
C345        H358   1.074       .  S
N346        C347   1.356       .  A
N346        N435   1.413       .  S
C347        H348   1.081       .  S
C349        N350   1.364       .  A
C349        H359   1.078       .  S
N350        C351   1.362       .  A
C351        H357   1.081       .  S
C352        N353   1.355       .  A
C352        H354   1.081       .  S
N353        C355   1.359       .  A
N353        N909   1.413       .  S
C355        H356   1.081       .  S
Zr360       O361   2.438       .  S
Zr360       O362   2.482       .  S
Zr360       O363   2.495       .  S
Zr360       O366   2.489       .  S
Zr360       O368   2.404       .  S
Zr360       O369   2.396       .  S
Zr360       O371   2.417       .  S
Zr360      O1706   2.433       .  S
O361        H417   0.990       .  S
O361        H425   0.990       .  S
O362        C382   1.293       .  A
O363        C384   1.297       .  A
O364       Zr374   2.410       .  S
O364        C383   1.278       .  A
O365       Zr373   2.386       .  S
O365       C1720   1.277   1_545  A
O366        C383   1.298       .  A
O367       Zr375   2.450       .  S
O367        C382   1.285       .  A
O368       Zr375   2.349       .  S
O368      Zr1709   2.429       .  S
O369       Zr374   2.382       .  S
O369       Zr375   2.382       .  S
O369        H404   0.955       .  S
O370       Zr373   2.425       .  S
O370       Zr390   2.405       .  S
O370      Zr1696   2.433   1_545  S
O370        H407   0.968       .  S
O371       Zr374   2.401       .  S
O371      Zr1726   2.408       .  S
Zr372       O397   2.433       .  S
Zr372       O391   2.420       .  S
Zr372       O399   2.378       .  S
Zr372       O387   2.383       .  S
Zr372       O379   2.411       .  S
Zr372       O380   2.364       .  S
Zr372       O381   2.381       .  S
Zr372      O1714   2.304       .  S
Zr373       O392   2.435       .  S
Zr373       O385   2.434       .  S
Zr373       O386   2.496       .  S
Zr373       O379   2.384       .  S
Zr373       O380   2.374       .  S
Zr373      O1704   2.430   1_545  S
Zr374       O376   2.434       .  S
Zr374       O398   2.437       .  S
Zr374       O400   2.437       .  S
Zr374      O1717   2.379       .  S
Zr374       O378   2.289       .  S
Zr375       O401   2.438       .  S
Zr375       O402   2.438       .  S
Zr375       O377   2.433       .  S
Zr375      O1715   2.383       .  S
Zr375       O378   2.314       .  S
O376        H413   0.990       .  S
O377        H408   0.990       .  S
O377        H422   0.990       .  S
O378      Zr1708   2.306       .  S
O379      Zr1711   2.383   1_545  S
O379        H405   0.966       .  S
O380       Zr390   2.369       .  S
O381       Zr390   2.374       .  S
O381      Zr1710   2.378   1_545  S
O381        H406   0.969       .  S
C382        C450   1.501       .  S
C383        C473   1.510       .  S
C384       O1701   1.278       .  A
C384        C543   1.478       .  S
O385        H421   0.990       .  S
O386        C388   1.286       .  A
O387        C388   1.262       .  A
C388        C460   1.520       .  S
O389       Zr390   2.435   1_565  S
O389        H418   0.991       .  S
Zr390       O393   2.436       .  S
Zr390       O394   2.438       .  S
Zr390       O395   2.458       .  S
Zr390      O1707   2.404   1_545  S
O391        C396   1.283       .  A
O392        H409   0.990       .  S
O392        H424   0.990       .  S
O393        H410   0.990       .  S
O394        H414   0.990       .  S
O394        H423   0.990   1_545  S
O395        C396   1.289       .  A
C396        C483   1.485       .  S
O397        H416   0.984       .  S
O397        H420   0.989       .  S
O398        H412   0.997       .  S
O398        H419   0.979       .  S
O399        C403   1.260       .  A
O400       C1739   1.273       .  A
O401        H411   0.991       .  S
O402       H1751   0.990       .  S
C403       O1736   1.273   1_545  A
C403        C490   1.479       .  S
H415       O1738   0.990       .  S
C426        C428   1.544       .  S
C426        C430   1.544       .  S
C426        C429   1.547       .  S
C426        C463   1.552       .  S
C427        C431   1.539       .  S
C427        C433   1.574       .  S
C427        C432   1.557       .  S
C427        C453   1.562       .  S
C428        C436   1.377       .  A
C428        C431   1.381       .  A
C429        C440   1.395       .  A
C429        C432   1.391       .  A
C430        C444   1.384       .  A
C430        C433   1.427       .  A
C431        C434   1.386       .  A
C432        C438   1.394       .  A
C433        C441   1.404       .  A
C434        N435   1.354       .  A
C434        H447   1.079       .  S
N435        C436   1.350       .  A
C436        H437   1.071       .  S
C438        N439   1.366       .  A
C438        H448   1.081       .  S
N439        C440   1.365       .  A
C440        H446   1.081       .  S
C441        N442   1.358       .  A
C441        H443   1.081       .  S
N442        C444   1.340       .  A
N442        C553   1.445       .  S
C444        H445   1.080       .  S
C449        C450   1.409       .  A
C449        C454   1.408       .  A
C449       Br456   1.922       .  S
C450        C451   1.414       .  A
C451        C452   1.425       .  A
C451       Br458   1.925       .  S
C452        C453   1.420       .  A
C452       Br457   1.928       .  S
C453        C454   1.425       .  A
C454       Br455   1.943       .  S
C459        C460   1.433       .  A
C459        C464   1.404       .  A
C459       Br466   1.927       .  S
C460        C461   1.426       .  A
C461        C462   1.423       .  A
C461       Br468   1.928       .  S
C462        C463   1.412       .  A
C462       Br467   1.931       .  S
C463        C464   1.401       .  A
C464       Br465   1.942       .  S
C469        C470   1.414       .  A
C469        C474   1.396       .  A
C469       Br476   1.933       .  S
C470        C471   1.437       .  A
C471        C472   1.421       .  A
C471       Br478   1.937       .  S
C472        C473   1.411       .  A
C472       Br477   1.933       .  S
C473        C474   1.417       .  A
C474       Br475   1.926       .  S
C479        C480   1.416       .  A
C479        C484   1.415       .  A
C479       Br486   1.925       .  S
C480        C481   1.431       .  A
C481        C482   1.408       .  A
C481       Br488   1.943       .  S
C482        C483   1.407       .  A
C482       Br487   1.935       .  S
C483        C484   1.410       .  A
C484       Br485   1.927       .  S
C489        C490   1.430       .  A
C489        C494   1.410       .  A
C489       Br496   1.940       .  S
C490        C491   1.431       .  A
C491        C492   1.409       .  A
C491       Br498   1.929   1_545  S
C492        C493   1.394       .  A
C492       Br497   1.922       .  S
C493        C494   1.401       .  A
C494       Br495   1.921       .  S
C499        C500   1.400       .  A
C499        C504   1.404       .  A
C499       Br506   1.933       .  S
C500        C501   1.410       .  A
C501        C502   1.414       .  A
C501       Br508   1.941       .  S
C502        C503   1.436       .  A
C502       Br507   1.942       .  S
C503        C504   1.433       .  A
C504       Br505   1.939       .  S
C509        C510   1.391       .  A
C509        C514   1.391       .  A
C509       Br516   1.942       .  S
C510        C511   1.402       .  A
C511        C512   1.406       .  A
C511       Br518   1.928       .  S
C512        C513   1.417       .  A
C512       Br517   1.926       .  S
C513        C514   1.439       .  A
C514       Br515   1.944       .  S
C519        C520   1.425       .  A
C519        C524   1.409       .  A
C519       Br526   1.919       .  S
C520        C521   1.408       .  A
C521        C522   1.413       .  A
C521       Br528   1.934       .  S
C522        C523   1.437       .  A
C522       Br527   1.941       .  S
C523        C524   1.400       .  A
C524       Br525   1.922       .  S
C529        C530   1.437       .  A
C529        C534   1.407       .  A
C529       Br536   1.938       .  S
C530        C531   1.412       .  A
C531        C532   1.416       .  A
C531       Br538   1.922       .  S
C532        C533   1.412       .  A
C532       Br537   1.924       .  S
C533        C534   1.397       .  A
C534       Br535   1.931       .  S
C539        C544   1.417       .  A
C539       C1876   1.410       .  A
C539       Br546   1.923       .  S
C540        C541   1.407       .  A
C540       C1875   1.410       .  A
C541        C542   1.405       .  A
C541       Br548   1.915       .  S
C542        C543   1.408       .  A
C542       Br547   1.931       .  S
C543       C1880   1.411       .  A
C544       C1879   1.412       .  A
C544       Br545   1.926       .  S
C549        C550   1.416       .  A
C549        C554   1.416       .  A
C549       Br556   1.928       .  S
C550        C551   1.414       .  A
C551        C552   1.413       .  A
C551       Br558   1.927       .  S
C552        C553   1.407       .  A
C552       Br557   1.926       .  S
C553        C554   1.409       .  A
C554       Br555   1.926       .  S
C559        C560   1.417       .  A
C559        C564   1.411       .  A
C559       Br566   1.925       .  S
C560        C561   1.441       .  A
C561        C562   1.391       .  A
C561       Br568   1.944       .  S
C562        C563   1.390       .  A
C562       Br567   1.945       .  S
C563        C564   1.404       .  A
C564       Br565   1.927       .  S
C569        C570   1.428       .  A
C569        C574   1.421       .  A
C569       Br576   1.930       .  S
C570        C571   1.414       .  A
C571        C572   1.405       .  A
C571       Br578   1.942       .  S
C572        C573   1.431       .  A
C572       Br577   1.943       .  S
C573        C574   1.409       .  A
C574       Br575   1.928       .  S
C579        C580   1.411       .  A
C579        C584   1.420       .  A
C579       Br586   1.921   1_455  S
C580        C581   1.440       .  A
C581        C582   1.409       .  A
C581       Br588   1.941       .  S
C582        C583   1.398       .  A
C582       Br587   1.931       .  S
C583        C584   1.416       .  A
C584       Br585   1.922   1_455  S
C589        C590   1.395       .  A
C589        C594   1.415       .  A
C589       Br596   1.937       .  S
C590        C591   1.410       .  A
C591        C592   1.417       .  A
C591       Br598   1.939       .  S
C592        C593   1.433       .  A
C592       Br597   1.932       .  S
C593        C594   1.452       .  A
C594       Br595   1.945       .  S
C599        C600   1.408       .  A
C599        C604   1.416       .  A
C599       Br606   1.924       .  S
C600        C601   1.414       .  A
C601        C602   1.411       .  A
C601       Br608   1.920       .  S
C602        C603   1.410       .  A
C602       Br607   1.931       .  S
C603        C604   1.414       .  A
C604       Br605   1.928       .  S
C609        C610   1.408       .  A
C609        C614   1.407       .  A
C609       Br616   1.932       .  S
C610        C611   1.413       .  A
C611        C612   1.416       .  A
C611       Br618   1.924       .  S
C612        C613   1.407       .  A
C612       Br617   1.923       .  S
C613        C614   1.410       .  A
C614       Br615   1.920       .  S
C619        C620   1.429       .  A
C619        C624   1.405       .  A
C619       Br626   1.924       .  S
C620        C621   1.429       .  A
C621        C622   1.410       .  A
C621       Br628   1.947       .  S
C622        C623   1.404       .  A
C622       Br627   1.920       .  S
C623        C624   1.390       .  A
C624       Br625   1.924       .  S
C629        C630   1.409       .  A
C629        C634   1.411       .  A
C629       Br636   1.941       .  S
C630        C631   1.435       .  A
C631        C632   1.423       .  A
C631       Br638   1.933       .  S
C632        C633   1.409       .  A
C632       Br637   1.929       .  S
C633        C634   1.437       .  A
C634       Br635   1.941       .  S
C639        C640   1.417       .  A
C639        C644   1.414       .  A
C639       Br646   1.924       .  S
C640        C641   1.455       .  A
C641        C642   1.395       .  A
C641       Br648   1.950       .  S
C642        C643   1.384       .  A
C642       Br647   1.944       .  S
C643        C644   1.408       .  A
C644       Br645   1.927       .  S
C649        C650   1.426       .  A
C649        C654   1.413       .  A
C649       Br656   1.943       .  S
C650        C651   1.404       .  A
C651        C652   1.425       .  A
C651       Br658   1.929   1_655  S
C652        C653   1.438       .  A
C652       Br657   1.933   1_655  S
C653        C654   1.422       .  A
C654       Br655   1.935       .  S
C659        C660   1.419       .  A
C659        C664   1.423       .  A
C659       Br666   1.925   1_655  S
C660        C661   1.436       .  A
C661        C662   1.410       .  A
C661       Br668   1.943       .  S
C662        C663   1.403       .  A
C662       Br667   1.934       .  S
C663        C664   1.413       .  A
C664       Br665   1.927   1_655  S
C669        C671   1.535       .  S
C669        C673   1.542       .  S
C669        C672   1.575   1_655  S
C669       C1318   1.559       .  S
C670        C674   1.527       .  S
C670        C676   1.535       .  S
C670        C675   1.573   1_655  S
C670       C1328   1.564       .  S
C671        C679   1.386       .  A
C671       C2010   1.385   1_545  A
C672        C683   1.398       .  A
C672       C2011   1.428   1_545  A
C673        C687   1.390       .  A
C673       C2012   1.389   1_545  A
C674       C2007   1.384       .  A
C674        C677   1.375       .  A
C675       C2008   1.428       .  A
C675        C681   1.388       .  A
C676       C2009   1.389       .  A
C676        C684   1.385       .  A
C677        N678   1.352       .  A
C677        H690   1.081       .  S
N678       C2015   1.351       .  A
N678        N767   1.410       .  S
C679       N2014   1.352       .  A
C679        H680   1.082       .  S
C681        N682   1.362       .  A
C681        H691   1.078       .  S
N682       C2019   1.363       .  A
N682        N883   1.428       .  S
C683       N2018   1.363       .  A
C683        H689   1.079       .  S
C684       N2021   1.360       .  A
C684        H686   1.081       .  S
N685       C2020   1.359   1_545  A
N685        C687   1.362       .  A
C687        H688   1.081       .  S
Zr692       O693   2.436       .  S
Zr692       O694   2.477       .  S
Zr692       O695   2.501       .  S
Zr692       O698   2.490       .  S
Zr692       O700   2.387       .  S
Zr692       O701   2.383       .  S
Zr692       O702   2.428       .  S
Zr692       O703   2.420       .  S
O693        H749   0.990       .  S
O693        H757   0.990       .  S
O694        C714   1.293       .  A
O695        C716   1.297       .  A
O696       Zr706   2.429       .  S
O696        C715   1.280       .  A
O697       Zr705   2.379       .  S
O697        C716   1.274       .  A
O698        C715   1.296       .  A
O699       Zr707   2.398       .  S
O699        C714   1.272       .  A
O700       Zr705   2.411       .  S
O700       Zr707   2.367       .  S
O701       Zr706   2.398       .  S
O701       Zr707   2.381       .  S
O701        H736   0.966       .  S
O702       Zr705   2.403       .  S
O702       Zr722   2.413       .  S
O702        H739   0.967       .  S
O703       Zr706   2.406       .  S
O703       Zr722   2.419       .  S
Zr704       O729   2.438       .  S
Zr704       O723   2.429       .  S
Zr704       O731   2.390       .  S
Zr704       O719   2.363       .  S
Zr704       O710   2.403       .  S
Zr704       O711   2.393       .  S
Zr704       O712   2.364       .  S
Zr704       O713   2.378       .  S
Zr705       O724   2.434       .  S
Zr705       O717   2.435       .  S
Zr705       O718   2.464       .  S
Zr705       O711   2.365       .  S
Zr705       O712   2.375       .  S
Zr706       O708   2.436       .  S
Zr706       O730   2.440       .  S
Zr706       O732   2.447       .  S
Zr706       O710   2.398       .  S
Zr706       O713   2.395       .  S
Zr707       O733   2.432       .  S
Zr707       O734   2.437       .  S
Zr707       O709   2.438       .  S
Zr707       O710   2.383       .  S
Zr707       O711   2.378       .  S
O708        H745   0.990   1_655  S
O709        H740   0.990       .  S
O709        H754   0.989       .  S
O711        H737   0.959       .  S
O712       Zr722   2.372       .  S
O713       Zr722   2.364       .  S
O713        H738   0.968       .  S
C714       C1298   1.512       .  S
C715       C1321   1.533       .  S
C716       C1278   1.481       .  S
O717        H753   0.990       .  S
O718        C720   1.289       .  A
O719        C720   1.272       .  A
C720       C1311   1.454       .  S
O721       Zr722   2.440       .  S
O721        H750   0.990       .  S
Zr722       O725   2.437       .  S
Zr722       O726   2.438       .  S
Zr722       O727   2.479       .  S
O723        C728   1.284       .  A
O724        H741   0.989       .  S
O724        H756   0.990       .  S
O725        H742   0.990       .  S
O726        H746   0.990       .  S
O726        H755   0.990       .  S
O727        C728   1.293       .  A
C728       C1331   1.495       .  S
O729        H748   0.986       .  S
O729        H752   0.988       .  S
O730        H744   0.989       .  S
O730        H751   0.990       .  S
O731        C735   1.261       .  A
O732        C735   1.278       .  A
O733        H743   0.990       .  S
O734        H747   0.990       .  S
C735       C1288   1.480       .  S
C758        C760   1.516       .  S
C758        C762   1.519       .  S
C758        C761   1.573       .  S
C758       C1308   1.545       .  S
C759        C763   1.537       .  S
C759        C765   1.545       .  S
C759        C764   1.599       .  S
C759       C1301   1.554       .  S
C760        C768   1.369       .  A
C760       C2099   1.372       .  A
C761        C772   1.399       .  A
C761       C2100   1.449       .  A
C762        C776   1.381       .  A
C762       C2101   1.363       .  A
C763       C2096   1.373   1_545  A
C763        C766   1.386       .  A
C764       C2097   1.448   1_545  A
C764        C770   1.409       .  A
C765       C2098   1.363   1_545  A
C765        C773   1.402       .  A
C766       N2103   1.360       .  A
C766        H779   1.081       .  S
N767       C2102   1.360       .  A
N767        C768   1.352       .  A
C768        H769   1.081       .  S
C770       N2107   1.367   1_545  A
C770        H780   1.081       .  S
N771       C2106   1.368       .  A
N771        C772   1.360       .  A
N771        N794   1.438       .  S
C772        H778   1.080       .  S
C773       N2110   1.366   1_545  A
C773        H775   1.082       .  S
N774       C2109   1.368       .  A
N774        C776   1.346       .  A
N774       C1268   1.450       .  S
C776        H777   1.083       .  S
C781        C783   1.530       .  S
C781        C785   1.539       .  S
C781        C784   1.587   1_455  S
C781       C1261   1.573       .  S
C782        C786   1.526       .  S
C782        C788   1.537       .  S
C782        C787   1.586   1_455  S
C782       C1248   1.565       .  S
C783        C791   1.380       .  A
C783       C2122   1.378   1_545  A
C784        C795   1.399       .  A
C784       C2123   1.428   1_545  A
C785        C799   1.390       .  A
C785       C2124   1.389   1_545  A
C786       C2119   1.380       .  A
C786        C789   1.386       .  A
C787       C2120   1.428       .  A
C787        C793   1.401       .  A
C788       C2121   1.388       .  A
C788        C796   1.383       .  A
C789        N790   1.353       .  A
C789        H802   1.082       .  S
N790       C2127   1.345       .  A
N790        N879   1.408       .  S
C791       N2126   1.348   1_545  A
C791        H792   1.079       .  S
C793        N794   1.371       .  A
C793        H803   1.078       .  S
N794       C2131   1.366       .  A
C795       N2130   1.365   1_545  A
C795        H801   1.080       .  S
C796       N2133   1.359   1_455  A
C796        H798   1.081       .  S
N797       C2132   1.359   1_645  A
N797        C799   1.360   1_655  A
C799        H800   1.081   1_455  S
Zr804       O805   2.436       .  S
Zr804       O806   2.461       .  S
Zr804       O807   2.512       .  S
Zr804       O810   2.505       .  S
Zr804       O812   2.383       .  S
Zr804       O813   2.388       .  S
Zr804       O814   2.424       .  S
Zr804       O815   2.436       .  S
O805        H861   0.990       .  S
O805        H869   0.990       .  S
O806        C826   1.290       .  A
O807        C828   1.301       .  A
O808       Zr818   2.408       .  S
O808        C827   1.278       .  A
O809       Zr817   2.398       .  S
O809        C828   1.277       .  A
O810        C827   1.300       .  A
O811       Zr819   2.428       .  S
O811        C826   1.281       .  A
O812       Zr817   2.397       .  S
O812       Zr819   2.388       .  S
O813       Zr818   2.391       .  S
O813       Zr819   2.349       .  S
O813        H848   0.961       .  S
O814       Zr817   2.401       .  S
O814       Zr834   2.411       .  S
O814        H851   0.953       .  S
O815       Zr818   2.393       .  S
O815       Zr834   2.431       .  S
Zr816       O841   2.417       .  S
Zr816       O835   2.399       .  S
Zr816       O843   2.366       .  S
Zr816       O831   2.386       .  S
Zr816       O822   2.396       .  S
Zr816       O823   2.380       .  S
Zr816       O824   2.362       .  S
Zr816       O825   2.370       .  S
Zr817       O836   2.436       .  S
Zr817       O829   2.436       .  S
Zr817       O830   2.425       .  S
Zr817       O823   2.378       .  S
Zr817       O824   2.395       .  S
Zr818       O820   2.433       .  S
Zr818       O842   2.436       .  S
Zr818       O844   2.428       .  S
Zr818       O822   2.396       .  S
Zr818       O825   2.355       .  S
Zr819       O845   2.438       .  S
Zr819       O846   2.438       .  S
Zr819       O821   2.437       .  S
Zr819       O822   2.403       .  S
Zr819       O823   2.375       .  S
O820        H857   0.990       .  S
O821        H852   0.990       .  S
O821        H866   0.990       .  S
O823        H849   0.967       .  S
O824       Zr834   2.379       .  S
O825       Zr834   2.347       .  S
O825        H850   0.965       .  S
C826       C1238   1.508       .  S
C827       C1258   1.493       .  S
C828       C1218   1.492       .  S
O829        H865   0.990       .  S
O830        C832   1.282       .  A
O831        C832   1.276       .  A
C832       C1231   1.448       .  S
O833       Zr834   2.436       .  S
O833        H862   0.990       .  S
Zr834       O837   2.435       .  S
Zr834       O838   2.437       .  S
Zr834       O839   2.497       .  S
O835        C840   1.277       .  A
O836        H853   0.990       .  S
O836        H868   0.990       .  S
O837        H854   0.990       .  S
O838        H858   0.990       .  S
O838        H867   0.990       .  S
O839        C840   1.296       .  A
C840       C1251   1.492       .  S
O841        H860   0.988       .  S
O841        H864   0.989       .  S
O842        H856   0.989   1_455  S
O842        H863   0.989       .  S
O843        C847   1.273       .  A
O844        C847   1.288       .  A
O845        H855   0.990       .  S
O846        H859   0.990       .  S
C847       C1291   1.482   1_455  S
C870        C872   1.523       .  S
C870        C874   1.520       .  S
C870        C873   1.562       .  S
C870       C1228   1.538       .  S
C871        C875   1.534       .  S
C871        C877   1.546       .  S
C871        C876   1.585       .  S
C871       C1241   1.553       .  S
C872        C880   1.379       .  A
C872       C2211   1.373       .  A
C873        C884   1.388       .  A
C873       C2212   1.442       .  A
C874        C888   1.377       .  A
C874       C2213   1.374       .  A
C875       C2208   1.373   1_545  A
C875        C878   1.377       .  A
C876       C2209   1.441   1_545  A
C876        C882   1.405       .  A
C877       C2210   1.372   1_545  A
C877        C885   1.395       .  A
C878       N2215   1.356   1_545  A
C878        H891   1.080       .  S
N879       C2214   1.357       .  A
N879        C880   1.351       .  A
C880        H881   1.081       .  S
C882       N2219   1.363       .  A
C882        H892   1.081       .  S
N883       C2218   1.363       .  A
N883        C884   1.355       .  A
C884        H890   1.079       .  S
C885       N2222   1.365   1_545  A
C885        H887   1.082       .  S
N886       C2221   1.365       .  A
N886        C888   1.350       .  A
N886       C1208   1.442       .  S
C888        H889   1.083       .  S
C893        C895   1.531       .  S
C893        C897   1.530       .  S
C893        C896   1.581       .  S
C893       C1191   1.549       .  S
C894        C898   1.530       .  S
C894        C900   1.524       .  S
C894        C899   1.580       .  S
C894       C1198   1.551       .  S
C895        C903   1.385       .  A
C895        C898   1.380       .  A
C896        C907   1.395       .  A
C896        C899   1.426       .  A
C897        C911   1.383       .  A
C897        C900   1.384       .  A
C898        C901   1.381       .  A
C899        C905   1.398       .  A
C900        C908   1.377       .  A
C901        N902   1.353       .  A
C901        H914   1.081       .  S
N902        C903   1.354       .  A
N902        N991   1.412       .  S
C903        H904   1.082       .  S
C905        N906   1.366       .  A
C905        H915   1.078       .  S
N906        C907   1.365       .  A
N906       N1107   1.433       .  S
C907        H913   1.076       .  S
C908        N909   1.355       .  A
C908        H910   1.081       .  S
N909        C911   1.357       .  A
C911        H912   1.082       .  S
Zr916       O917   2.436       .  S
Zr916       O918   2.453       .  S
Zr916       O919   2.509       .  S
Zr916       O922   2.500       .  S
Zr916       O924   2.391       .  S
Zr916       O925   2.386       .  S
Zr916      O2262   2.421       .  S
Zr916       O927   2.431       .  S
O917        H973   0.990       .  S
O917        H981   0.990       .  S
O918        C938   1.289       .  A
O919        C940   1.299       .  A
O920       Zr930   2.403       .  S
O920        C939   1.277       .  A
O921       Zr929   2.381   1_565  S
O921       C2276   1.275       .  A
O922        C939   1.300       .  A
O923       Zr931   2.420       .  S
O923        C938   1.281       .  A
O924      Zr2265   2.399       .  S
O924       Zr931   2.382       .  S
O925       Zr930   2.397       .  S
O925       Zr931   2.363       .  S
O925        H960   0.964       .  S
O926      Zr2252   2.423   1_545  S
O926       Zr929   2.398       .  S
O926       Zr946   2.404       .  S
O926        H963   0.968   1_545  S
O927       Zr930   2.395       .  S
O927      Zr2282   2.431       .  S
Zr928       O953   2.422       .  S
Zr928       O947   2.379       .  S
Zr928       O955   2.374       .  S
Zr928       O943   2.392       .  S
Zr928      O2270   2.387       .  S
Zr928       O935   2.381       .  S
Zr928       O936   2.364       .  S
Zr928       O937   2.373       .  S
Zr929       O948   2.438       .  S
Zr929       O941   2.434       .  S
Zr929       O942   2.413       .  S
Zr929      O2260   2.393   1_545  S
Zr929       O935   2.377       .  S
Zr929       O936   2.389       .  S
Zr930       O932   2.434       .  S
Zr930       O954   2.421       .  S
Zr930       O956   2.421       .  S
Zr930       O934   2.388       .  S
Zr930      O2273   2.355       .  S
Zr931       O957   2.432       .  S
Zr931       O958   2.437       .  S
Zr931       O933   2.437       .  S
Zr931       O934   2.398       .  S
Zr931      O2271   2.373       .  S
O932        H969   0.990       .  S
O933        H964   0.990       .  S
O933        H978   0.990       .  S
O934      Zr2264   2.384       .  S
O935      Zr2267   2.371   1_545  S
O935        H961   0.959       .  S
O936       Zr946   2.373       .  S
O937      Zr2266   2.352   1_545  S
O937       Zr946   2.354       .  S
O937        H962   0.965       .  S
C938       C1168   1.491       .  S
C939       C1188   1.502       .  S
C940       O2257   1.275       .  A
C940       C1271   1.485       .  S
O941        H977   0.990       .  S
O942        C944   1.279       .  A
O943        C944   1.276       .  A
C944       C1178   1.442       .  S
O945       Zr946   2.436       .  S
O945        H974   0.991   1_545  S
Zr946       O949   2.434       .  S
Zr946       O950   2.439       .  S
Zr946       O951   2.493       .  S
Zr946      O2263   2.430   1_545  S
O947        C952   1.274       .  A
O948        H965   0.990       .  S
O948        H980   0.990       .  S
O949        H966   0.990       .  S
O950        H970   0.990       .  S
O950        H979   0.990       .  S
O951        C952   1.295       .  A
C952       C1201   1.481       .  S
O953        H972   0.990       .  S
O953        H976   0.990       .  S
O954        H968   0.989       .  S
O954        H975   0.989       .  S
O955        C959   1.275       .  A
O956       C2295   1.285       .  A
O957        H967   0.989       .  S
O958       H2307   0.990       .  S
C959       O2292   1.286       .  A
C959       C1161   1.480       .  S
H971       O2294   0.990       .  S
C982        C984   1.523       .  S
C982        C986   1.523       .  S
C982        C985   1.548       .  S
C982       C1181   1.527       .  S
C983        C987   1.539       .  S
C983        C989   1.570       .  S
C983        C988   1.585       .  S
C983       C1171   1.557       .  S
C984        C992   1.380       .  A
C984        C987   1.370       .  A
C985        C996   1.383       .  A
C985        C988   1.414       .  A
C986       C1000   1.373       .  A
C986        C989   1.387       .  A
C987        C990   1.387       .  A
C988        C994   1.396       .  A
C989        C997   1.406       .  A
C990        N991   1.356       .  A
C990       H1003   1.081       .  S
N991        C992   1.354       .  A
C992        H993   1.081       .  S
C994        N995   1.368       .  A
C994       H1004   1.081       .  S
N995        C996   1.359       .  A
N995       N1018   1.426       .  S
C996       H1002   1.080       .  S
C997        N998   1.369       .  A
C997        H999   1.082       .  S
N998       C1000   1.346       .  A
N998       C1281   1.447       .  S
C1000      H1001   1.083       .  S
C1005      C1007   1.528       .  S
C1005      C1009   1.540       .  S
C1005      C1008   1.563       .  S
C1005      C1138   1.542       .  S
C1006      C1010   1.532       .  S
C1006      C1012   1.535       .  S
C1006      C1011   1.567       .  S
C1006      C1148   1.550       .  S
C1007      C1015   1.381       .  A
C1007      C1010   1.374       .  A
C1008      C1019   1.390       .  A
C1008      C1011   1.408       .  A
C1009      C1023   1.385       .  A
C1009      C1012   1.399       .  A
C1010      C1013   1.375       .  A
C1011      C1017   1.391       .  A
C1012      C1020   1.375       .  A
C1013      N1014   1.359       .  A
C1013      H1026   1.076       .  S
N1014      C1015   1.356       .  A
N1014      N1103   1.413       .  S
C1015      H1016   1.081       .  S
C1017      N1018   1.366       .  A
C1017      H1027   1.079       .  S
N1018      C1019   1.360       .  A
C1019      H1025   1.081       .  S
C1020      N1021   1.355       .  A
C1020      H1022   1.081       .  S
N1021      C1023   1.359       .  A
C1023      H1024   1.081       .  S
Zr1028     O1029   2.437       .  S
Zr1028     O1030   2.489       .  S
Zr1028     O1031   2.486       .  S
Zr1028     O1034   2.481       .  S
Zr1028     O1036   2.407       .  S
Zr1028     O1037   2.392       .  S
Zr1028     O2374   2.435       .  S
Zr1028     O1039   2.413       .  S
O1029      H1085   0.990       .  S
O1029      H1093   0.990       .  S
O1030      C1050   1.294       .  A
O1031      C1052   1.295       .  A
O1032     Zr1042   2.407       .  S
O1032      C1051   1.278       .  A
O1033     Zr1041   2.389       .  S
O1033      C2388   1.277   1_545  A
O1034      C1051   1.296       .  A
O1035     Zr1043   2.451       .  S
O1035      C1050   1.284       .  A
O1036     Zr2377   2.432       .  S
O1036     Zr1043   2.350       .  S
O1037     Zr1042   2.382       .  S
O1037     Zr1043   2.379       .  S
O1037      H1072   0.952       .  S
O1038     Zr2364   2.430   1_545  S
O1038     Zr1041   2.428       .  S
O1038     Zr1058   2.408       .  S
O1038      H1075   0.963       .  S
O1039     Zr1042   2.400       .  S
O1039     Zr2394   2.403       .  S
Zr1040     O1065   2.434       .  S
Zr1040     O1059   2.423       .  S
Zr1040     O1067   2.381       .  S
Zr1040     O1055   2.382       .  S
Zr1040     O1047   2.411       .  S
Zr1040     O1048   2.364       .  S
Zr1040     O1049   2.380       .  S
Zr1040     O2382   2.302   1_545  S
Zr1041     O1060   2.436       .  S
Zr1041     O1053   2.435       .  S
Zr1041     O1054   2.505       .  S
Zr1041     O2372   2.430   1_545  S
Zr1041     O1047   2.383       .  S
Zr1041     O1048   2.373       .  S
Zr1042     O1044   2.435       .  S
Zr1042     O1066   2.434       .  S
Zr1042     O1068   2.436       .  S
Zr1042     O2385   2.382       .  S
Zr1042     O1046   2.286       .  S
Zr1043     O1069   2.439       .  S
Zr1043     O1070   2.437       .  S
Zr1043     O1045   2.433       .  S
Zr1043     O2383   2.384       .  S
Zr1043     O1046   2.315       .  S
O1044      H1081   0.990       .  S
O1045      H1076   0.990       .  S
O1045      H1090   0.990       .  S
O1046     Zr2376   2.305       .  S
O1047     Zr2379   2.381   1_545  S
O1047      H1073   0.964       .  S
O1048     Zr1058   2.372       .  S
O1049     Zr2378   2.379   1_545  S
O1049     Zr1058   2.372       .  S
O1049      H1074   0.967       .  S
C1050      C1118   1.506       .  S
C1051      C1141   1.504       .  S
C1052      O2369   1.278       .  A
C1052      C1211   1.474       .  S
O1053      H1089   0.990       .  S
O1054      C1056   1.288       .  A
O1055      C1056   1.262       .  A
C1056      C1128   1.524       .  S
O1057     Zr1058   2.436   1_565  S
O1057      H1086   0.991       .  S
Zr1058     O1061   2.434       .  S
Zr1058     O1062   2.438       .  S
Zr1058     O1063   2.453       .  S
Zr1058     O2375   2.398   1_545  S
O1059      C1064   1.284       .  A
O1060      H1077   0.990       .  S
O1060      H1092   0.990       .  S
O1061      H1078   0.989       .  S
O1062      H1082   0.990       .  S
O1062      H1091   0.990   1_545  S
O1063      C1064   1.288       .  A
C1064      C1151   1.485       .  S
O1065      H1084   0.985       .  S
O1065      H1088   0.988       .  S
O1066      H1080   0.993       .  S
O1066      H1087   0.981       .  S
O1067      C1071   1.260       .  A
O1068      C2407   1.272       .  A
O1069      H1079   0.991       .  S
O1070      H2419   0.990       .  S
C1071      O2404   1.272   1_545  A
C1071      C1158   1.479       .  S
H1083      O2406   0.990       .  S
C1094      C1096   1.544       .  S
C1094      C1098   1.547       .  S
C1094      C1097   1.551       .  S
C1094      C1131   1.557       .  S
C1095      C1099   1.539       .  S
C1095      C1101   1.572       .  S
C1095      C1100   1.560       .  S
C1095      C1121   1.567       .  S
C1096      C1104   1.378       .  A
C1096      C1099   1.382       .  A
C1097      C1108   1.396       .  A
C1097      C1100   1.394       .  A
C1098      C1112   1.386       .  A
C1098      C1101   1.427       .  A
C1099      C1102   1.386       .  A
C1100      C1106   1.395       .  A
C1101      C1109   1.402       .  A
C1102      N1103   1.354       .  A
C1102      H1115   1.079       .  S
N1103      C1104   1.350       .  A
C1104      H1105   1.072       .  S
C1106      N1107   1.367       .  A
C1106      H1116   1.081       .  S
N1107      C1108   1.366       .  A
C1108      H1114   1.081       .  S
C1109      N1110   1.357       .  A
C1109      H1111   1.081       .  S
N1110      C1112   1.342       .  A
N1110      C1221   1.446       .  S
C1112      H1113   1.080       .  S
C1117      C1118   1.410       .  A
C1117      C1122   1.410       .  A
C1117     Br1124   1.920       .  S
C1118      C1119   1.415       .  A
C1119      C1120   1.427       .  A
C1119     Br1126   1.926       .  S
C1120      C1121   1.422       .  A
C1120     Br1125   1.929       .  S
C1121      C1122   1.424       .  A
C1122     Br1123   1.942       .  S
C1127      C1128   1.435       .  A
C1127      C1132   1.407       .  A
C1127     Br1134   1.930       .  S
C1128      C1129   1.425       .  A
C1129      C1130   1.425       .  A
C1129     Br1136   1.929       .  S
C1130      C1131   1.414       .  A
C1130     Br1135   1.931       .  S
C1131      C1132   1.403       .  A
C1132     Br1133   1.942       .  S
C1137      C1138   1.414       .  A
C1137      C1142   1.395       .  A
C1137     Br1144   1.937       .  S
C1138      C1139   1.433       .  A
C1139      C1140   1.418       .  A
C1139     Br1146   1.938       .  S
C1140      C1141   1.411       .  A
C1140     Br1145   1.932       .  S
C1141      C1142   1.417       .  A
C1142     Br1143   1.927       .  S
C1147      C1148   1.413       .  A
C1147      C1152   1.414       .  A
C1147     Br1154   1.924       .  S
C1148      C1149   1.428       .  A
C1149      C1150   1.408       .  A
C1149     Br1156   1.941       .  S
C1150      C1151   1.408       .  A
C1150     Br1155   1.934       .  S
C1151      C1152   1.410       .  A
C1152     Br1153   1.925       .  S
C1157      C1158   1.431       .  A
C1157      C1162   1.409       .  A
C1157     Br1164   1.944       .  S
C1158      C1159   1.431       .  A
C1159      C1160   1.406       .  A
C1159     Br1166   1.928   1_545  S
C1160      C1161   1.391       .  A
C1160     Br1165   1.922       .  S
C1161      C1162   1.399       .  A
C1162     Br1163   1.921       .  S
C1167      C1168   1.401       .  A
C1167      C1172   1.408       .  A
C1167     Br1174   1.932       .  S
C1168      C1169   1.410       .  A
C1169      C1170   1.416       .  A
C1169     Br1176   1.939       .  S
C1170      C1171   1.437       .  A
C1170     Br1175   1.942       .  S
C1171      C1172   1.434       .  A
C1172     Br1173   1.937       .  S
C1177      C1178   1.391       .  A
C1177      C1182   1.389       .  A
C1177     Br1184   1.941       .  S
C1178      C1179   1.403       .  A
C1179      C1180   1.406       .  A
C1179     Br1186   1.927       .  S
C1180      C1181   1.415       .  A
C1180     Br1185   1.926       .  S
C1181      C1182   1.435       .  A
C1182     Br1183   1.941       .  S
C1187      C1188   1.426       .  A
C1187      C1192   1.408       .  A
C1187     Br1194   1.919       .  S
C1188      C1189   1.407       .  A
C1189      C1190   1.411       .  A
C1189     Br1196   1.935       .  S
C1190      C1191   1.436       .  A
C1190     Br1195   1.939       .  S
C1191      C1192   1.398       .  A
C1192     Br1193   1.922       .  S
C1197      C1198   1.439       .  A
C1197      C1202   1.407       .  A
C1197     Br1204   1.940       .  S
C1198      C1199   1.408       .  A
C1199      C1200   1.413       .  A
C1199     Br1206   1.923       .  S
C1200      C1201   1.415       .  A
C1200     Br1205   1.924       .  S
C1201      C1202   1.397       .  A
C1202     Br1203   1.930       .  S
C1207      C2544   1.409       .  A
C1207      C1212   1.416       .  A
C1207     Br1214   1.924       .  S
C1208      C2543   1.410       .  A
C1208      C1209   1.407       .  A
C1209      C1210   1.403       .  A
C1209     Br1216   1.914       .  S
C1210      C1211   1.407       .  A
C1210     Br1215   1.931       .  S
C1211      C2548   1.411       .  A
C1212      C2547   1.412       .  A
C1212     Br1213   1.925       .  S
C1217      C1218   1.417       .  A
C1217      C1222   1.417       .  A
C1217     Br1224   1.928       .  S
C1218      C1219   1.415       .  A
C1219      C1220   1.413       .  A
C1219     Br1226   1.927       .  S
C1220      C1221   1.407       .  A
C1220     Br1225   1.927       .  S
C1221      C1222   1.409       .  A
C1222     Br1223   1.926       .  S
C1227      C1228   1.417       .  A
C1227      C1232   1.410       .  A
C1227     Br1234   1.924       .  S
C1228      C1229   1.441       .  A
C1229      C1230   1.392       .  A
C1229     Br1236   1.941       .  S
C1230      C1231   1.390       .  A
C1230     Br1235   1.946       .  S
C1231      C1232   1.404       .  A
C1232     Br1233   1.928       .  S
C1237      C1238   1.427       .  A
C1237      C1242   1.421       .  A
C1237     Br1244   1.930       .  S
C1238      C1239   1.415       .  A
C1239      C1240   1.406       .  A
C1239     Br1246   1.943       .  S
C1240      C1241   1.432       .  A
C1240     Br1245   1.943       .  S
C1241      C1242   1.409       .  A
C1242     Br1243   1.928       .  S
C1247      C1248   1.412       .  A
C1247      C1252   1.421       .  A
C1247     Br1254   1.920   1_455  S
C1248      C1249   1.442       .  A
C1249      C1250   1.411       .  A
C1249     Br1256   1.940       .  S
C1250      C1251   1.397       .  A
C1250     Br1255   1.931       .  S
C1251      C1252   1.415       .  A
C1252     Br1253   1.924   1_455  S
C1257      C1258   1.394       .  A
C1257      C1262   1.416       .  A
C1257     Br1264   1.937       .  S
C1258      C1259   1.410       .  A
C1259      C1260   1.418       .  A
C1259     Br1266   1.938       .  S
C1260      C1261   1.433       .  A
C1260     Br1265   1.930   1_455  S
C1261      C1262   1.453       .  A
C1262     Br1263   1.943       .  S
C1267      C1268   1.408       .  A
C1267      C1272   1.416       .  A
C1267     Br1274   1.924       .  S
C1268      C1269   1.414       .  A
C1269      C1270   1.412       .  A
C1269     Br1276   1.919       .  S
C1270      C1271   1.409       .  A
C1270     Br1275   1.930       .  S
C1271      C1272   1.414       .  A
C1272     Br1273   1.926       .  S
C1277      C1278   1.408       .  A
C1277      C1282   1.407       .  A
C1277     Br1284   1.933       .  S
C1278      C1279   1.414       .  A
C1279      C1280   1.419       .  A
C1279     Br1286   1.925       .  S
C1280      C1281   1.409       .  A
C1280     Br1285   1.923       .  S
C1281      C1282   1.409       .  A
C1282     Br1283   1.917       .  S
C1287      C1288   1.429       .  A
C1287      C1292   1.405       .  A
C1287     Br1294   1.924       .  S
C1288      C1289   1.430       .  A
C1289      C1290   1.410       .  A
C1289     Br1296   1.946       .  S
C1290      C1291   1.404       .  A
C1290     Br1295   1.922       .  S
C1291      C1292   1.391       .  A
C1292     Br1293   1.923       .  S
C1297      C1298   1.407       .  A
C1297      C1302   1.408       .  A
C1297     Br1304   1.943       .  S
C1298      C1299   1.432       .  A
C1299      C1300   1.421       .  A
C1299     Br1306   1.935       .  S
C1300      C1301   1.410       .  A
C1300     Br1305   1.930       .  S
C1301      C1302   1.439       .  A
C1302     Br1303   1.943       .  S
C1307      C1308   1.418       .  A
C1307      C1312   1.414       .  A
C1307     Br1314   1.923       .  S
C1308      C1309   1.454       .  A
C1309      C1310   1.394       .  A
C1309     Br1316   1.949       .  S
C1310      C1311   1.384       .  A
C1310     Br1315   1.942       .  S
C1311      C1312   1.408       .  A
C1312     Br1313   1.928       .  S
C1317      C1318   1.427       .  A
C1317      C1322   1.415       .  A
C1317     Br1324   1.943       .  S
C1318      C1319   1.402       .  A
C1319      C1320   1.423       .  A
C1319     Br1326   1.929   1_655  S
C1320      C1321   1.439       .  A
C1320     Br1325   1.934   1_655  S
C1321      C1322   1.423       .  A
C1322     Br1323   1.935       .  S
C1327      C1328   1.416       .  A
C1327      C1332   1.422       .  A
C1327     Br1334   1.924   1_655  S
C1328      C1329   1.437       .  A
C1329      C1330   1.410       .  A
C1329     Br1336   1.943       .  S
C1330      C1331   1.403       .  A
C1330     Br1335   1.934       .  S
C1331      C1332   1.414       .  A
C1332     Br1333   1.926   1_655  S
C1337      C1339   1.533       .  S
C1337      C1341   1.538       .  S
C1337      C1340   1.573   1_655  S
C1337      C1986   1.552       .  S
C1338      C1342   1.528       .  S
C1338      C1344   1.534       .  S
C1338      C1343   1.574   1_655  S
C1338      C1996   1.565       .  S
C1339      C1347   1.386       .  A
C1340      C1351   1.397       .  A
C1341      C1355   1.389       .  A
C1342      C1345   1.378       .  A
C1343      C1349   1.389       .  A
C1344      C1352   1.383       .  A
C1345      N1346   1.353   1_565  A
C1345      H1358   1.081       .  S
N1346      N1435   1.410   1_545  S
C1347      H1348   1.082       .  S
C1349      N1350   1.363   1_565  A
C1349      H1359   1.077       .  S
N1350      N1551   1.429       .  S
C1351      H1357   1.079       .  S
C1352      H1354   1.081       .  S
N1353      C1355   1.361       .  A
N1353      N2133   1.420       .  S
C1355      H1356   1.081       .  S
Zr1360     O1361   2.437       .  S
Zr1360     O1362   2.474       .  S
Zr1360     O1363   2.509       .  S
Zr1360     O1366   2.484       .  S
Zr1360     O1368   2.385       .  S
Zr1360     O1369   2.385       .  S
Zr1360     O1370   2.423       .  S
Zr1360     O1371   2.420       .  S
O1361      H1417   0.990       .  S
O1361      H1425   0.990       .  S
O1362      C1382   1.292       .  A
O1363      C1384   1.299       .  A
O1364     Zr1374   2.417       .  S
O1364      C1383   1.277       .  A
O1365     Zr1373   2.372       .  S
O1365      C1384   1.273       .  A
O1366      C1383   1.295       .  A
O1367     Zr1375   2.400       .  S
O1367      C1382   1.272       .  A
O1368     Zr1373   2.410       .  S
O1368     Zr1375   2.368       .  S
O1369     Zr1374   2.399       .  S
O1369     Zr1375   2.379       .  S
O1369      H1404   0.965       .  S
O1370     Zr1373   2.406       .  S
O1370     Zr1390   2.411       .  S
O1370      H1407   0.966       .  S
O1371     Zr1374   2.409       .  S
O1371     Zr1390   2.416       .  S
Zr1372     O1397   2.433       .  S
Zr1372     O1391   2.420       .  S
Zr1372     O1399   2.386       .  S
Zr1372     O1387   2.367       .  S
Zr1372     O1378   2.399       .  S
Zr1372     O1379   2.390       .  S
Zr1372     O1380   2.362       .  S
Zr1372     O1381   2.378       .  S
Zr1373     O1392   2.433       .  S
Zr1373     O1385   2.435       .  S
Zr1373     O1386   2.454       .  S
Zr1373     O1379   2.363       .  S
Zr1373     O1380   2.373       .  S
Zr1374     O1376   2.436       .  S
Zr1374     O1398   2.440       .  S
Zr1374     O1400   2.452       .  S
Zr1374     O1378   2.385       .  S
Zr1374     O1381   2.390       .  S
Zr1375     O1401   2.432       .  S
Zr1375     O1402   2.435       .  S
Zr1375     O1377   2.440       .  S
Zr1375     O1378   2.380       .  S
Zr1375     O1379   2.372       .  S
O1376      H1413   0.990   1_655  S
O1377      H1408   0.990       .  S
O1377      H1422   0.989       .  S
O1379      H1405   0.958       .  S
O1380     Zr1390   2.373       .  S
O1381     Zr1390   2.368       .  S
O1381      H1406   0.968       .  S
C1382      C1966   1.510       .  S
C1383      C1989   1.526       .  S
C1384      C1946   1.481       .  S
O1385      H1421   0.990       .  S
O1386      C1388   1.287       .  A
O1387      C1388   1.273       .  A
C1388      C1979   1.451       .  S
O1389     Zr1390   2.441       .  S
O1389      H1418   0.990       .  S
Zr1390     O1393   2.437       .  S
Zr1390     O1394   2.438       .  S
Zr1390     O1395   2.476       .  S
O1391      C1396   1.282       .  A
O1392      H1409   0.990       .  S
O1392      H1424   0.990       .  S
O1393      H1410   0.990       .  S
O1394      H1414   0.990       .  S
O1394      H1423   0.989       .  S
O1395      C1396   1.293       .  A
C1396      C1999   1.491       .  S
O1397      H1416   0.986       .  S
O1397      H1420   0.987       .  S
O1398      H1412   0.989       .  S
O1398      H1419   0.990       .  S
O1399      C1403   1.262       .  A
O1400      C1403   1.280       .  A
O1401      H1411   0.990       .  S
O1402      H1415   0.989       .  S
C1403      C1956   1.484       .  S
C1426      C1428   1.518       .  S
C1426      C1430   1.518       .  S
C1426      C1429   1.570       .  S
C1426      C1976   1.544       .  S
C1427      C1431   1.541       .  S
C1427      C1433   1.549       .  S
C1427      C1432   1.599       .  S
C1427      C1969   1.554       .  S
C1428      C1436   1.372       .  A
C1429      C1440   1.396       .  A
C1430      C1444   1.379       .  A
C1431      C1434   1.390       .  A
C1432      C1438   1.409       .  A
C1433      C1441   1.403       .  A
C1434      H1447   1.082       .  S
N1435      C1436   1.352       .  A
C1436      H1437   1.081       .  S
C1438      H1448   1.081       .  S
N1439      C1440   1.358       .  A
N1439      N1462   1.434       .  S
C1440      H1446   1.080       .  S
C1441      H1443   1.082       .  S
N1442      C1444   1.346       .  A
N1442      C1936   1.449       .  S
C1444      H1445   1.083       .  S
C1449      C1451   1.531       .  S
C1449      C1453   1.542       .  S
C1449      C1452   1.591   1_455  S
C1449      C1929   1.578       .  S
C1450      C1454   1.526       .  S
C1450      C1456   1.540       .  S
C1450      C1455   1.583   1_455  S
C1450      C1916   1.560       .  S
C1451      C1459   1.379       .  A
C1452      C1463   1.401       .  A
C1453      C1467   1.391       .  A
C1454      C1457   1.387       .  A
C1455      C1461   1.398       .  A
C1456      C1464   1.384       .  A
C1457      N1458   1.352       .  A
C1457      H1470   1.082       .  S
N1458      N1547   1.410       .  S
C1459      H1460   1.078       .  S
C1461      N1462   1.369       .  A
C1461      H1471   1.078       .  S
C1463      H1469   1.080       .  S
C1464      H1466   1.081       .  S
N1465      C1467   1.362   1_655  A
N1465      N2021   1.422   1_554  S
C1467      H1468   1.081   1_455  S
Zr1472     O1473   2.438       .  S
Zr1472     O1474   2.461       .  S
Zr1472     O1475   2.501       .  S
Zr1472     O1478   2.505       .  S
Zr1472     O1480   2.386       .  S
Zr1472     O1481   2.386       .  S
Zr1472     O1482   2.423       .  S
Zr1472     O1483   2.434       .  S
O1473      H1529   0.990       .  S
O1473      H1537   0.990       .  S
O1474      C1494   1.290       .  A
O1475      C1496   1.298       .  A
O1476     Zr1486   2.420       .  S
O1476      C1495   1.280       .  A
O1477     Zr1485   2.395       .  S
O1477      C1496   1.277       .  A
O1478      C1495   1.299       .  A
O1479     Zr1487   2.421       .  S
O1479      C1494   1.280       .  A
O1480     Zr1485   2.397       .  S
O1480     Zr1487   2.388       .  S
O1481     Zr1486   2.392       .  S
O1481     Zr1487   2.355       .  S
O1481      H1516   0.960       .  S
O1482     Zr1485   2.402       .  S
O1482     Zr1502   2.406       .  S
O1482      H1519   0.956       .  S
O1483     Zr1486   2.392       .  S
O1483     Zr1502   2.431       .  S
Zr1484     O1509   2.422       .  S
Zr1484     O1503   2.398       .  S
Zr1484     O1511   2.355       .  S
Zr1484     O1499   2.384       .  S
Zr1484     O1490   2.395       .  S
Zr1484     O1491   2.377       .  S
Zr1484     O1492   2.359       .  S
Zr1484     O1493   2.371       .  S
Zr1485     O1504   2.436       .  S
Zr1485     O1497   2.436       .  S
Zr1485     O1498   2.428       .  S
Zr1485     O1491   2.377       .  S
Zr1485     O1492   2.394       .  S
Zr1486     O1488   2.435       .  S
Zr1486     O1510   2.436       .  S
Zr1486     O1512   2.437       .  S
Zr1486     O1490   2.401       .  S
Zr1486     O1493   2.361       .  S
Zr1487     O1513   2.436       .  S
Zr1487     O1514   2.437       .  S
Zr1487     O1489   2.436       .  S
Zr1487     O1490   2.396       .  S
Zr1487     O1491   2.371       .  S
O1488      H1525   0.990       .  S
O1489      H1520   0.990       .  S
O1489      H1534   0.989       .  S
O1491      H1517   0.968       .  S
O1492     Zr1502   2.375       .  S
O1493     Zr1502   2.350       .  S
O1493      H1518   0.964       .  S
C1494      C1906   1.506       .  S
C1495      C1926   1.499       .  S
C1496      C1886   1.485       .  S
O1497      H1533   0.990       .  S
O1498      C1500   1.283       .  A
O1499      C1500   1.275       .  A
C1500      C1899   1.448       .  S
O1501     Zr1502   2.435       .  S
O1501      H1530   0.990       .  S
Zr1502     O1505   2.435       .  S
Zr1502     O1506   2.438       .  S
Zr1502     O1507   2.490       .  S
O1503      C1508   1.276       .  A
O1504      H1521   0.990       .  S
O1504      H1536   0.990       .  S
O1505      H1522   0.990       .  S
O1506      H1526   0.990       .  S
O1506      H1535   0.990       .  S
O1507      C1508   1.294       .  A
C1508      C1919   1.487       .  S
O1509      H1528   0.989       .  S
O1509      H1532   0.990       .  S
O1510      H1524   0.989   1_455  S
O1510      H1531   0.990       .  S
O1511      C1515   1.274       .  A
O1512      C1515   1.288       .  A
O1513      H1523   0.990       .  S
O1514      H1527   0.990       .  S
C1515      C1959   1.483   1_455  S
C1538      C1540   1.527       .  S
C1538      C1542   1.524       .  S
C1538      C1541   1.562       .  S
C1538      C1896   1.538       .  S
C1539      C1543   1.533       .  S
C1539      C1545   1.543       .  S
C1539      C1544   1.584       .  S
C1539      C1909   1.552       .  S
C1540      C1548   1.383       .  A
C1541      C1552   1.388       .  A
C1542      C1556   1.380       .  A
C1543      C1546   1.376       .  A
C1544      C1550   1.404       .  A
C1545      C1553   1.395       .  A
C1546      H1559   1.080       .  S
N1547      C1548   1.354       .  A
C1548      H1549   1.082       .  S
C1550      H1560   1.081       .  S
N1551      C1552   1.355   1_545  A
C1552      H1558   1.079       .  S
C1553      H1555   1.082       .  S
N1554      C1556   1.351       .  A
N1554      C1876   1.446       .  S
C1556      H1557   1.083       .  S
C1561      C1563   1.529       .  S
C1561      C1565   1.533       .  S
C1561      C1564   1.583       .  S
C1561      C1859   1.553       .  S
C1562      C1566   1.533       .  S
C1562      C1568   1.530       .  S
C1562      C1567   1.575       .  S
C1562      C1866   1.551       .  S
C1563      C1571   1.382       .  A
C1563      C1566   1.378       .  A
C1564      C1575   1.397       .  A
C1564      C1567   1.427       .  A
C1565      C1579   1.387       .  A
C1565      C1568   1.386       .  A
C1566      C1569   1.383       .  A
C1567      C1573   1.396       .  A
C1568      C1576   1.379       .  A
C1569      N1570   1.355       .  A
C1569      H1582   1.081       .  S
N1570      C1571   1.352       .  A
N1570      N1659   1.412       .  S
C1571      H1572   1.082       .  S
C1573      N1574   1.363       .  A
C1573      H1583   1.078       .  S
N1574      C1575   1.365       .  A
N1574      N1775   1.432       .  S
C1575      H1581   1.076       .  S
C1576      N1577   1.357       .  A
C1576      H1578   1.081       .  S
N1577      C1579   1.358       .  A
N1577      N2357   1.416   1_554  S
C1579      H1580   1.082       .  S
Zr1584     O1585   2.434       .  S
Zr1584     O1586   2.443       .  S
Zr1584     O1587   2.506       .  S
Zr1584     O1590   2.493       .  S
Zr1584     O1592   2.387       .  S
Zr1584     O1593   2.386       .  S
Zr1584     O1595   2.423       .  S
O1585      H1641   0.990       .  S
O1585      H1649   0.990       .  S
O1586      C1606   1.288       .  A
O1587      C1608   1.298       .  A
O1588     Zr1598   2.412       .  S
O1588      C1607   1.280       .  A
O1589     Zr1597   2.380       .  S
O1590      C1607   1.298       .  A
O1591     Zr1599   2.415       .  S
O1591      C1606   1.280       .  A
O1592     Zr1599   2.384       .  S
O1593     Zr1598   2.389       .  S
O1593     Zr1599   2.362       .  S
O1593      H1628   0.965       .  S
O1594     Zr1597   2.401       .  S
O1594     Zr1614   2.407       .  S
O1594      H1631   0.964       .  S
O1595     Zr1598   2.393       .  S
Zr1596     O1621   2.429       .  S
Zr1596     O1615   2.392       .  S
Zr1596     O1623   2.367       .  S
Zr1596     O1611   2.390       .  S
Zr1596     O1603   2.382       .  S
Zr1596     O1604   2.361       .  S
Zr1596     O1605   2.372       .  S
Zr1597     O1616   2.436       .  S
Zr1597     O1609   2.435       .  S
Zr1597     O1610   2.425       .  S
Zr1597     O1603   2.378       .  S
Zr1597     O1604   2.386       .  S
Zr1598     O1600   2.436       .  S
Zr1598     O1622   2.416       .  S
Zr1598     O1624   2.421   1_565  S
Zr1598     O1602   2.393   1_565  S
Zr1599     O1625   2.432       .  S
Zr1599     O1626   2.438   1_565  S
Zr1599     O1601   2.436       .  S
Zr1599     O1602   2.389   1_565  S
O1600      H1637   0.990       .  S
O1601      H1632   0.991       .  S
O1601      H1646   0.990       .  S
O1603      H1629   0.959       .  S
O1604     Zr1614   2.375       .  S
O1605     Zr1614   2.350       .  S
O1605      H1630   0.965       .  S
C1606      C1836   1.487       .  S
C1607      C1856   1.507       .  S
C1608      C1939   1.484       .  S
O1609      H1645   0.990       .  S
O1610      C1612   1.282       .  A
O1611      C1612   1.275       .  A
C1612      C1846   1.447       .  S
O1613     Zr1614   2.435       .  S
O1613      H1642   0.990       .  S
Zr1614     O1617   2.436       .  S
Zr1614     O1618   2.437       .  S
Zr1614     O1619   2.484       .  S
O1615      C1620   1.276       .  A
O1616      H1633   0.990       .  S
O1616      H1648   0.990       .  S
O1617      H1634   0.990       .  S
O1618      H1638   0.990       .  S
O1618      H1647   0.990       .  S
O1619      C1620   1.293       .  A
C1620      C1869   1.481       .  S
O1621      H1640   0.990       .  S
O1621      H1644   0.990       .  S
O1622      H1636   0.989       .  S
O1622      H1643   0.988       .  S
O1623      C1627   1.278       .  A
O1625      H1635   0.990       .  S
C1627      C1829   1.482       .  S
C1650      C1652   1.522       .  S
C1650      C1654   1.523       .  S
C1650      C1653   1.550       .  S
C1650      C1849   1.532       .  S
C1651      C1655   1.540       .  S
C1651      C1657   1.566       .  S
C1651      C1656   1.584       .  S
C1651      C1839   1.559       .  S
C1652      C1660   1.380       .  A
C1652      C1655   1.371       .  A
C1653      C1664   1.381       .  A
C1653      C1656   1.418       .  A
C1654      C1668   1.372       .  A
C1654      C1657   1.386       .  A
C1655      C1658   1.385       .  A
C1656      C1662   1.396       .  A
C1657      C1665   1.405       .  A
C1658      N1659   1.357       .  A
C1658      H1671   1.081       .  S
N1659      C1660   1.354       .  A
C1660      H1661   1.081       .  S
C1662      N1663   1.366       .  A
C1662      H1672   1.081       .  S
N1663      C1664   1.359       .  A
N1663      N1686   1.425       .  S
C1664      H1670   1.080       .  S
C1665      N1666   1.368       .  A
C1665      H1667   1.082       .  S
N1666      C1668   1.346       .  A
N1666      C1949   1.445       .  S
C1668      H1669   1.083       .  S
C1673      C1675   1.528       .  S
C1673      C1677   1.543       .  S
C1673      C1676   1.565       .  S
C1673      C1806   1.547       .  S
C1674      C1678   1.532       .  S
C1674      C1680   1.534       .  S
C1674      C1679   1.564       .  S
C1674      C1816   1.555       .  S
C1675      C1683   1.381       .  A
C1675      C1678   1.376       .  A
C1676      C1687   1.391       .  A
C1676      C1679   1.410       .  A
C1677      C1691   1.387       .  A
C1677      C1680   1.400       .  A
C1678      C1681   1.374       .  A
C1679      C1685   1.387       .  A
C1680      C1688   1.371       .  A
C1681      N1682   1.358       .  A
C1681      H1694   1.075       .  S
N1682      C1683   1.356       .  A
N1682      N1771   1.413       .  S
C1683      H1684   1.081       .  S
C1685      N1686   1.364       .  A
C1685      H1695   1.078       .  S
N1686      C1687   1.361       .  A
C1687      H1693   1.081       .  S
C1688      N1689   1.354       .  A
C1688      H1690   1.081       .  S
N1689      C1691   1.360       .  A
N1689      N2245   1.413       .  S
C1691      H1692   1.082       .  S
Zr1696     O1697   2.438       .  S
Zr1696     O1698   2.487       .  S
Zr1696     O1699   2.495       .  S
Zr1696     O1702   2.483       .  S
Zr1696     O1704   2.405       .  S
Zr1696     O1705   2.394       .  S
Zr1696     O1707   2.420       .  S
O1697      H1753   0.990       .  S
O1697      H1761   0.990       .  S
O1698      C1718   1.294       .  A
O1699      C1720   1.297       .  A
O1700     Zr1710   2.413       .  S
O1700      C1719   1.279       .  A
O1701     Zr1709   2.390       .  S
O1702      C1719   1.297       .  A
O1703     Zr1711   2.451       .  S
O1703      C1718   1.285       .  A
O1704     Zr1711   2.347       .  S
O1705     Zr1710   2.382       .  S
O1705     Zr1711   2.381       .  S
O1705      H1740   0.957       .  S
O1706     Zr1709   2.424       .  S
O1706     Zr1726   2.409       .  S
O1706      H1743   0.968       .  S
O1707     Zr1710   2.402       .  S
Zr1708     O1733   2.435       .  S
Zr1708     O1727   2.428       .  S
Zr1708     O1735   2.378       .  S
Zr1708     O1723   2.387       .  S
Zr1708     O1715   2.414       .  S
Zr1708     O1716   2.366       .  S
Zr1708     O1717   2.380       .  S
Zr1709     O1728   2.436       .  S
Zr1709     O1721   2.435       .  S
Zr1709     O1722   2.500       .  S
Zr1709     O1715   2.388       .  S
Zr1709     O1716   2.377       .  S
Zr1710     O1712   2.438       .  S
Zr1710     O1734   2.432       .  S
Zr1710     O1736   2.437       .  S
Zr1710     O1714   2.286   1_565  S
Zr1711     O1737   2.439       .  S
Zr1711     O1738   2.439   1_565  S
Zr1711     O1713   2.434       .  S
Zr1711     O1714   2.315   1_565  S
O1712      H1749   0.990       .  S
O1713      H1744   0.990   1_565  S
O1713      H1758   0.990       .  S
O1715      H1741   0.960       .  S
O1716     Zr1726   2.369       .  S
O1717     Zr1726   2.370       .  S
O1717      H1742   0.966       .  S
C1718      C1786   1.504       .  S
C1719      C1809   1.508       .  S
C1720      C1879   1.477       .  S
O1721      H1757   0.990       .  S
O1722      C1724   1.287       .  A
O1723      C1724   1.263       .  A
C1724      C1796   1.524       .  S
O1725     Zr1726   2.440       .  S
O1725      H1754   0.990       .  S
Zr1726     O1729   2.437       .  S
Zr1726     O1730   2.438       .  S
Zr1726     O1731   2.466       .  S
O1727      C1732   1.284       .  A
O1728      H1745   0.990       .  S
O1728      H1760   0.990       .  S
O1729      H1746   0.990       .  S
O1730      H1750   0.990       .  S
O1730      H1759   0.990       .  S
O1731      C1732   1.291       .  A
C1732      C1819   1.491       .  S
O1733      H1752   0.985       .  S
O1733      H1756   0.989       .  S
O1734      H1748   0.991       .  S
O1734      H1755   0.984       .  S
O1735      C1739   1.259       .  A
O1737      H1747   0.991       .  S
C1739      C1826   1.478       .  S
C1762      C1764   1.544       .  S
C1762      C1766   1.544       .  S
C1762      C1765   1.551       .  S
C1762      C1799   1.558       .  S
C1763      C1767   1.540       .  S
C1763      C1769   1.571       .  S
C1763      C1768   1.558       .  S
C1763      C1789   1.566       .  S
C1764      C1772   1.378       .  A
C1764      C1767   1.383       .  A
C1765      C1776   1.396       .  A
C1765      C1768   1.395       .  A
C1766      C1780   1.384       .  A
C1766      C1769   1.425       .  A
C1767      C1770   1.386       .  A
C1768      C1774   1.393       .  A
C1769      C1777   1.403       .  A
C1770      N1771   1.354       .  A
C1770      H1783   1.079       .  S
N1771      C1772   1.350       .  A
C1772      H1773   1.071       .  S
C1774      N1775   1.365       .  A
C1774      H1784   1.081       .  S
N1775      C1776   1.367       .  A
C1776      H1782   1.081       .  S
C1777      N1778   1.358       .  A
C1777      H1779   1.081       .  S
N1778      C1780   1.340       .  A
N1778      C1889   1.444       .  S
C1780      H1781   1.080       .  S
C1785      C1786   1.410       .  A
C1785      C1790   1.410       .  A
C1785     Br1792   1.920       .  S
C1786      C1787   1.414       .  A
C1787      C1788   1.426       .  A
C1787     Br1794   1.926       .  S
C1788      C1789   1.421       .  A
C1788     Br1793   1.928       .  S
C1789      C1790   1.424       .  A
C1790     Br1791   1.941       .  S
C1795      C1796   1.433       .  A
C1795      C1800   1.405       .  A
C1795     Br1802   1.924       .  S
C1796      C1797   1.425       .  A
C1797      C1798   1.425       .  A
C1797     Br1804   1.928       .  S
C1798      C1799   1.415       .  A
C1798     Br1803   1.932       .  S
C1799      C1800   1.400       .  A
C1800     Br1801   1.941       .  S
C1805      C1806   1.415       .  A
C1805      C1810   1.396       .  A
C1805     Br1812   1.938       .  S
C1806      C1807   1.436       .  A
C1807      C1808   1.421       .  A
C1807     Br1814   1.937       .  S
C1808      C1809   1.412       .  A
C1808     Br1813   1.933       .  S
C1809      C1810   1.417       .  A
C1810     Br1811   1.925       .  S
C1815      C1816   1.416       .  A
C1815      C1820   1.418       .  A
C1815     Br1822   1.927       .  S
C1816      C1817   1.427       .  A
C1817      C1818   1.407       .  A
C1817     Br1824   1.941       .  S
C1818      C1819   1.408       .  A
C1818     Br1823   1.934       .  S
C1819      C1820   1.413       .  A
C1820     Br1821   1.926       .  S
C1825      C1826   1.430       .  A
C1825      C1830   1.410       .  A
C1825     Br1832   1.941       .  S
C1826      C1827   1.430       .  A
C1827      C1828   1.409       .  A
C1827     Br1834   1.929       .  S
C1828      C1829   1.393       .  A
C1828     Br1833   1.921       .  S
C1829      C1830   1.404       .  A
C1830     Br1831   1.921       .  S
C1835      C1836   1.401       .  A
C1835      C1840   1.408       .  A
C1835     Br1842   1.936       .  S
C1836      C1837   1.410       .  A
C1837      C1838   1.415       .  A
C1837     Br1844   1.942       .  S
C1838      C1839   1.436       .  A
C1838     Br1843   1.940       .  S
C1839      C1840   1.437       .  A
C1840     Br1841   1.937       .  S
C1845      C1846   1.391       .  A
C1845      C1850   1.392       .  A
C1845     Br1852   1.941       .  S
C1846      C1847   1.405       .  A
C1847      C1848   1.408       .  A
C1847     Br1854   1.928       .  S
C1848      C1849   1.417       .  A
C1848     Br1853   1.926       .  S
C1849      C1850   1.437       .  A
C1850     Br1851   1.944       .  S
C1855      C1856   1.427       .  A
C1855      C1860   1.409       .  A
C1855     Br1862   1.920       .  S
C1856      C1857   1.409       .  A
C1857      C1858   1.412       .  A
C1857     Br1864   1.935       .  S
C1858      C1859   1.438       .  A
C1858     Br1863   1.944       .  S
C1859      C1860   1.400       .  A
C1860     Br1861   1.923       .  S
C1865      C1866   1.436       .  A
C1865      C1870   1.406       .  A
C1865     Br1872   1.939       .  S
C1866      C1867   1.411       .  A
C1867      C1868   1.416       .  A
C1867     Br1874   1.924       .  S
C1868      C1869   1.413       .  A
C1868     Br1873   1.923       .  S
C1869      C1870   1.397       .  A
C1870     Br1871   1.930       .  S
C1875      C1880   1.416       .  A
C1875     Br1882   1.923       .  S
C1876      C1877   1.409       .  A
C1877      C1878   1.406       .  A
C1877     Br1884   1.914       .  S
C1878      C1879   1.406       .  A
C1878     Br1883   1.932       .  S
C1880     Br1881   1.925       .  S
C1885      C1886   1.414       .  A
C1885      C1890   1.414       .  A
C1885     Br1892   1.928       .  S
C1886      C1887   1.412       .  A
C1887      C1888   1.411       .  A
C1887     Br1894   1.928       .  S
C1888      C1889   1.408       .  A
C1888     Br1893   1.926       .  S
C1889      C1890   1.410       .  A
C1890     Br1891   1.926       .  S
C1895      C1896   1.418       .  A
C1895      C1900   1.410       .  A
C1895     Br1902   1.924       .  S
C1896      C1897   1.441       .  A
C1897      C1898   1.392       .  A
C1897     Br1904   1.942       .  S
C1898      C1899   1.390       .  A
C1898     Br1903   1.945       .  S
C1899      C1900   1.404       .  A
C1900     Br1901   1.928       .  S
C1905      C1906   1.427       .  A
C1905      C1910   1.421       .  A
C1905     Br1912   1.929       .  S
C1906      C1907   1.414       .  A
C1907      C1908   1.405       .  A
C1907     Br1914   1.944       .  S
C1908      C1909   1.432       .  A
C1908     Br1913   1.942       .  S
C1909      C1910   1.409       .  A
C1910     Br1911   1.928       .  S
C1915      C1916   1.411       .  A
C1915      C1920   1.419       .  A
C1915     Br1922   1.921   1_455  S
C1916      C1917   1.441       .  A
C1917      C1918   1.408       .  A
C1917     Br1924   1.941       .  S
C1918      C1919   1.397       .  A
C1918     Br1923   1.932       .  S
C1919      C1920   1.415       .  A
C1920     Br1921   1.923       .  S
C1925      C1926   1.397       .  A
C1925      C1930   1.420       .  A
C1925     Br1932   1.936       .  S
C1926      C1927   1.410       .  A
C1927      C1928   1.420       .  A
C1927     Br1934   1.938       .  S
C1928      C1929   1.435       .  A
C1928     Br1933   1.930       .  S
C1929      C1930   1.453       .  A
C1930     Br1931   1.943       .  S
C1935      C1936   1.409       .  A
C1935      C1940   1.416       .  A
C1935     Br1942   1.924       .  S
C1936      C1937   1.414       .  A
C1937      C1938   1.411       .  A
C1937     Br1944   1.917       .  S
C1938      C1939   1.408       .  A
C1938     Br1943   1.930       .  S
C1939      C1940   1.413       .  A
C1940     Br1941   1.926       .  S
C1945      C1946   1.409       .  A
C1945      C1950   1.408       .  A
C1945     Br1952   1.932       .  S
C1946      C1947   1.413       .  A
C1947      C1948   1.417       .  A
C1947     Br1954   1.924       .  S
C1948      C1949   1.408       .  A
C1948     Br1953   1.923       .  S
C1949      C1950   1.410       .  A
C1950     Br1951   1.920       .  S
C1955      C1956   1.432       .  A
C1955      C1960   1.407       .  A
C1955     Br1962   1.922       .  S
C1956      C1957   1.431       .  A
C1957      C1958   1.412       .  A
C1957     Br1964   1.944       .  S
C1958      C1959   1.404       .  A
C1958     Br1963   1.920       .  S
C1959      C1960   1.387       .  A
C1960     Br1961   1.924       .  S
C1965      C1966   1.407       .  A
C1965      C1970   1.408       .  A
C1965     Br1972   1.943       .  S
C1966      C1967   1.432       .  A
C1967      C1968   1.420       .  A
C1967     Br1974   1.934       .  S
C1968      C1969   1.410       .  A
C1968     Br1973   1.929       .  S
C1969      C1970   1.437       .  A
C1970     Br1971   1.941       .  S
C1975      C1976   1.418       .  A
C1975      C1980   1.413       .  A
C1975     Br1982   1.923       .  S
C1976      C1977   1.453       .  A
C1977      C1978   1.393       .  A
C1977     Br1984   1.948       .  S
C1978      C1979   1.383       .  A
C1978     Br1983   1.945       .  S
C1979      C1980   1.408       .  A
C1980     Br1981   1.929       .  S
C1985      C1986   1.426       .  A
C1985      C1990   1.411       .  A
C1985     Br1992   1.945       .  S
C1986      C1987   1.400       .  A
C1987      C1988   1.420       .  A
C1987     Br1994   1.930   1_655  S
C1988      C1989   1.440       .  A
C1988     Br1993   1.934   1_655  S
C1989      C1990   1.423       .  A
C1990     Br1991   1.937       .  S
C1995      C1996   1.418       .  A
C1995      C2000   1.422       .  A
C1995     Br2002   1.923   1_655  S
C1996      C1997   1.437       .  A
C1997      C1998   1.409       .  A
C1997     Br2004   1.942       .  S
C1998      C1999   1.401       .  A
C1998     Br2003   1.936       .  S
C1999      C2000   1.413       .  A
C2000     Br2001   1.927   1_655  S
C2005      C2007   1.534       .  S
C2005      C2009   1.541       .  S
C2005      C2008   1.576   1_655  S
C2005      C2654   1.556       .  S
C2006      C2010   1.529       .  S
C2006      C2012   1.533       .  S
C2006      C2011   1.573   1_655  S
C2006      C2664   1.566       .  S
C2007      C2015   1.388       .  A
C2008      C2019   1.398       .  A
C2009      C2023   1.389       .  A
C2010      C2013   1.377       .  A
C2011      C2017   1.387       .  A
C2012      C2020   1.382       .  A
C2013      N2014   1.352   1_565  A
C2013      H2026   1.081       .  S
N2014      N2103   1.410       .  S
C2015      H2016   1.082       .  S
C2017      N2018   1.363   1_565  A
C2017      H2027   1.076       .  S
N2018      N2219   1.428       .  S
C2019      H2025   1.079       .  S
C2020      H2022   1.081       .  S
N2021      C2023   1.361       .  A
C2023      H2024   1.081       .  S
Zr2028     O2029   2.437       .  S
Zr2028     O2030   2.474       .  S
Zr2028     O2031   2.507       .  S
Zr2028     O2034   2.490       .  S
Zr2028     O2036   2.387       .  S
Zr2028     O2037   2.388       .  S
Zr2028     O2038   2.429       .  S
Zr2028     O2039   2.420       .  S
O2029      H2085   0.990       .  S
O2029      H2093   0.990       .  S
O2030      C2050   1.292       .  A
O2031      C2052   1.298       .  A
O2032     Zr2042   2.420       .  S
O2032      C2051   1.278       .  A
O2033     Zr2041   2.366       .  S
O2033      C2052   1.271       .  A
O2034      C2051   1.296       .  A
O2035     Zr2043   2.400       .  S
O2035      C2050   1.273       .  A
O2036     Zr2041   2.413       .  S
O2036     Zr2043   2.366       .  S
O2037     Zr2042   2.402       .  S
O2037     Zr2043   2.384       .  S
O2037      H2072   0.966       .  S
O2038     Zr2041   2.403       .  S
O2038     Zr2058   2.416       .  S
O2038      H2075   0.966       .  S
O2039     Zr2042   2.407       .  S
O2039     Zr2058   2.416       .  S
Zr2040     O2065   2.435       .  S
Zr2040     O2059   2.419       .  S
Zr2040     O2067   2.391       .  S
Zr2040     O2055   2.368       .  S
Zr2040     O2046   2.403       .  S
Zr2040     O2047   2.389       .  S
Zr2040     O2048   2.365       .  S
Zr2040     O2049   2.379       .  S
Zr2041     O2060   2.433       .  S
Zr2041     O2053   2.437       .  S
Zr2041     O2054   2.457       .  S
Zr2041     O2047   2.366       .  S
Zr2041     O2048   2.370       .  S
Zr2042     O2044   2.437       .  S
Zr2042     O2066   2.441       .  S
Zr2042     O2068   2.445       .  S
Zr2042     O2046   2.393       .  S
Zr2042     O2049   2.393       .  S
Zr2043     O2069   2.433       .  S
Zr2043     O2070   2.436       .  S
Zr2043     O2045   2.438       .  S
Zr2043     O2046   2.382       .  S
Zr2043     O2047   2.371       .  S
O2044      H2081   0.990   1_655  S
O2045      H2076   0.990       .  S
O2045      H2090   0.989       .  S
O2047      H2073   0.957       .  S
O2048     Zr2058   2.374       .  S
O2049     Zr2058   2.366       .  S
O2049      H2074   0.968       .  S
C2050      C2634   1.513       .  S
C2051      C2657   1.531       .  S
C2052      C2614   1.480       .  S
O2053      H2089   0.990       .  S
O2054      C2056   1.287       .  A
O2055      C2056   1.273       .  A
C2056      C2647   1.452       .  S
O2057     Zr2058   2.441       .  S
O2057      H2086   0.990       .  S
Zr2058     O2061   2.437       .  S
Zr2058     O2062   2.438       .  S
Zr2058     O2063   2.479       .  S
O2059      C2064   1.282       .  A
O2060      H2077   0.990       .  S
O2060      H2092   0.990       .  S
O2061      H2078   0.990       .  S
O2062      H2082   0.990       .  S
O2062      H2091   0.990       .  S
O2063      C2064   1.294       .  A
C2064      C2667   1.492       .  S
O2065      H2084   0.986       .  S
O2065      H2088   0.988       .  S
O2066      H2080   0.989       .  S
O2066      H2087   0.990       .  S
O2067      C2071   1.262       .  A
O2068      C2071   1.277       .  A
O2069      H2079   0.990       .  S
O2070      H2083   0.989       .  S
C2071      C2624   1.480       .  S
C2094      C2096   1.520       .  S
C2094      C2098   1.519       .  S
C2094      C2097   1.571       .  S
C2094      C2644   1.544       .  S
C2095      C2099   1.537       .  S
C2095      C2101   1.549       .  S
C2095      C2100   1.602       .  S
C2095      C2637   1.555       .  S
C2096      C2104   1.372       .  A
C2097      C2108   1.397       .  A
C2098      C2112   1.380       .  A
C2099      C2102   1.388       .  A
C2100      C2106   1.411       .  A
C2101      C2109   1.404       .  A
C2102      H2115   1.082       .  S
N2103      C2104   1.353   1_545  A
C2104      H2105   1.081       .  S
C2106      H2116   1.081       .  S
N2107      C2108   1.358       .  A
N2107      N2130   1.436       .  S
C2108      H2114   1.080       .  S
C2109      H2111   1.082       .  S
N2110      C2112   1.345       .  A
N2110      C2604   1.446       .  S
C2112      H2113   1.083       .  S
C2117      C2119   1.528       .  S
C2117      C2121   1.537       .  S
C2117      C2120   1.589   1_455  S
C2117      C2597   1.574       .  S
C2118      C2122   1.527       .  S
C2118      C2124   1.538       .  S
C2118      C2123   1.585   1_455  S
C2118      C2584   1.562       .  S
C2119      C2127   1.379       .  A
C2120      C2131   1.400       .  A
C2121      C2135   1.389       .  A
C2122      C2125   1.387       .  A
C2123      C2129   1.399       .  A
C2124      C2132   1.384       .  A
C2125      N2126   1.353       .  A
C2125      H2138   1.082       .  S
N2126      N2215   1.410       .  S
C2127      H2128   1.078       .  S
C2129      N2130   1.370       .  A
C2129      H2139   1.077       .  S
C2131      H2137   1.080       .  S
C2132      H2134   1.081       .  S
N2133      C2135   1.360   1_655  A
C2135      H2136   1.081   1_455  S
Zr2140     O2141   2.438       .  S
Zr2140     O2142   2.460       .  S
Zr2140     O2143   2.487       .  S
Zr2140     O2146   2.497       .  S
Zr2140     O2148   2.383       .  S
Zr2140     O2149   2.384       .  S
Zr2140     O2150   2.422       .  S
Zr2140     O2151   2.432       .  S
O2141      H2197   0.990       .  S
O2141      H2205   0.990       .  S
O2142      C2162   1.289       .  A
O2143      C2164   1.295       .  A
O2144     Zr2154   2.412       .  S
O2144      C2163   1.279       .  A
O2145     Zr2153   2.402       .  S
O2145      C2164   1.278       .  A
O2146      C2163   1.298       .  A
O2147     Zr2155   2.420       .  S
O2147      C2162   1.280       .  A
O2148     Zr2153   2.393       .  S
O2148     Zr2155   2.383       .  S
O2149     Zr2154   2.392       .  S
O2149     Zr2155   2.356       .  S
O2149      H2184   0.960       .  S
O2150     Zr2153   2.401       .  S
O2150     Zr2170   2.405       .  S
O2150      H2187   0.953       .  S
O2151     Zr2154   2.395       .  S
O2151     Zr2170   2.431       .  S
Zr2152     O2177   2.417       .  S
Zr2152     O2171   2.400       .  S
Zr2152     O2179   2.367       .  S
Zr2152     O2167   2.389       .  S
Zr2152     O2158   2.398       .  S
Zr2152     O2159   2.380       .  S
Zr2152     O2160   2.360       .  S
Zr2152     O2161   2.371       .  S
Zr2153     O2172   2.438       .  S
Zr2153     O2165   2.435       .  S
Zr2153     O2166   2.422       .  S
Zr2153     O2159   2.378       .  S
Zr2153     O2160   2.395       .  S
Zr2154     O2156   2.433       .  S
Zr2154     O2178   2.438       .  S
Zr2154     O2180   2.429       .  S
Zr2154     O2158   2.402       .  S
Zr2154     O2161   2.359       .  S
Zr2155     O2181   2.432       .  S
Zr2155     O2182   2.436       .  S
Zr2155     O2157   2.437       .  S
Zr2155     O2158   2.404       .  S
Zr2155     O2159   2.370       .  S
O2156      H2193   0.990       .  S
O2157      H2188   0.990       .  S
O2157      H2202   0.990       .  S
O2159      H2185   0.966       .  S
O2160     Zr2170   2.376       .  S
O2161     Zr2170   2.352       .  S
O2161      H2186   0.964       .  S
C2162      C2574   1.510       .  S
C2163      C2594   1.493       .  S
C2164      C2554   1.484       .  S
O2165      H2201   0.990       .  S
O2166      C2168   1.282       .  A
O2167      C2168   1.276       .  A
C2168      C2567   1.447       .  S
O2169     Zr2170   2.435       .  S
O2169      H2198   0.990       .  S
Zr2170     O2173   2.436       .  S
Zr2170     O2174   2.437       .  S
Zr2170     O2175   2.485       .  S
O2171      C2176   1.277       .  A
O2172      H2189   0.990       .  S
O2172      H2204   0.990       .  S
O2173      H2190   0.990       .  S
O2174      H2194   0.990       .  S
O2174      H2203   0.990       .  S
O2175      C2176   1.293       .  A
C2176      C2587   1.486       .  S
O2177      H2196   0.987       .  S
O2177      H2200   0.990       .  S
O2178      H2192   0.990   1_455  S
O2178      H2199   0.989       .  S
O2179      C2183   1.275       .  A
O2180      C2183   1.287       .  A
O2181      H2191   0.990       .  S
O2182      H2195   0.990       .  S
C2183      C2627   1.484   1_455  S
C2206      C2208   1.528       .  S
C2206      C2210   1.520       .  S
C2206      C2209   1.560       .  S
C2206      C2564   1.534       .  S
C2207      C2211   1.535       .  S
C2207      C2213   1.546       .  S
C2207      C2212   1.585       .  S
C2207      C2577   1.557       .  S
C2208      C2216   1.383       .  A
C2209      C2220   1.386       .  A
C2210      C2224   1.378       .  A
C2211      C2214   1.377       .  A
C2212      C2218   1.404       .  A
C2213      C2221   1.395       .  A
C2214      H2227   1.081       .  S
N2215      C2216   1.354       .  A
C2216      H2217   1.081       .  S
C2218      H2228   1.081       .  S
N2219      C2220   1.354   1_545  A
C2220      H2226   1.079       .  S
C2221      H2223   1.082       .  S
N2222      C2224   1.349       .  A
N2222      C2544   1.443       .  S
C2224      H2225   1.083       .  S
C2229      C2231   1.526       .  S
C2229      C2233   1.527       .  S
C2229      C2232   1.583       .  S
C2229      C2527   1.551       .  S
C2230      C2234   1.532       .  S
C2230      C2236   1.527       .  S
C2230      C2235   1.581       .  S
C2230      C2534   1.555       .  S
C2231      C2239   1.378       .  A
C2231      C2234   1.379       .  A
C2232      C2243   1.397       .  A
C2232      C2235   1.428       .  A
C2233      C2247   1.383       .  A
C2233      C2236   1.384       .  A
C2234      C2237   1.382       .  A
C2235      C2241   1.397       .  A
C2236      C2244   1.376       .  A
C2237      N2238   1.355       .  A
C2237      H2250   1.081       .  S
N2238      C2239   1.351       .  A
N2238      N2327   1.409       .  S
C2239      H2240   1.082       .  S
C2241      N2242   1.366       .  A
C2241      H2251   1.078       .  S
N2242      C2243   1.365       .  A
N2242      N2443   1.433       .  S
C2243      H2249   1.076       .  S
C2244      N2245   1.357       .  A
C2244      H2246   1.081       .  S
N2245      C2247   1.356       .  A
C2247      H2248   1.082       .  S
Zr2252     O2253   2.435       .  S
Zr2252     O2254   2.456       .  S
Zr2252     O2255   2.502       .  S
Zr2252     O2258   2.486       .  S
Zr2252     O2260   2.386       .  S
Zr2252     O2261   2.387       .  S
Zr2252     O2263   2.431       .  S
O2253      H2309   0.990       .  S
O2253      H2317   0.990       .  S
O2254      C2274   1.290       .  A
O2255      C2276   1.298       .  A
O2256     Zr2266   2.407       .  S
O2256      C2275   1.277       .  A
O2257     Zr2265   2.386       .  S
O2258      C2275   1.297       .  A
O2259     Zr2267   2.411       .  S
O2259      C2274   1.279       .  A
O2260     Zr2267   2.384       .  S
O2261     Zr2266   2.399       .  S
O2261     Zr2267   2.360       .  S
O2261      H2296   0.964       .  S
O2262     Zr2265   2.402       .  S
O2262     Zr2282   2.403       .  S
O2262      H2299   0.968       .  S
O2263     Zr2266   2.380       .  S
Zr2264     O2289   2.421       .  S
Zr2264     O2283   2.392       .  S
Zr2264     O2291   2.371       .  S
Zr2264     O2279   2.385       .  S
Zr2264     O2271   2.385       .  S
Zr2264     O2272   2.363       .  S
Zr2264     O2273   2.367       .  S
Zr2265     O2284   2.437       .  S
Zr2265     O2277   2.435       .  S
Zr2265     O2278   2.424       .  S
Zr2265     O2271   2.378       .  S
Zr2265     O2272   2.392       .  S
Zr2266     O2268   2.433       .  S
Zr2266     O2290   2.438       .  S
Zr2266     O2292   2.419   1_565  S
Zr2266     O2270   2.398   1_565  S
Zr2267     O2293   2.430       .  S
Zr2267     O2294   2.435   1_565  S
Zr2267     O2269   2.438       .  S
Zr2267     O2270   2.391   1_565  S
O2268      H2305   0.990   1_565  S
O2269      H2300   0.990       .  S
O2269      H2314   0.990       .  S
O2271      H2297   0.960       .  S
O2272     Zr2282   2.377       .  S
O2273     Zr2282   2.355       .  S
O2273      H2298   0.966       .  S
C2274      C2504   1.492       .  S
C2275      C2524   1.498       .  S
C2276      C2607   1.481       .  S
O2277      H2313   0.990       .  S
O2278      C2280   1.281       .  A
O2279      C2280   1.274       .  A
C2280      C2514   1.445       .  S
O2281     Zr2282   2.437       .  S
O2281      H2310   0.990       .  S
Zr2282     O2285   2.436       .  S
Zr2282     O2286   2.437       .  S
Zr2282     O2287   2.488       .  S
O2283      C2288   1.276       .  A
O2284      H2301   0.990       .  S
O2284      H2316   0.990       .  S
O2285      H2302   0.990       .  S
O2286      H2306   0.991       .  S
O2286      H2315   0.990       .  S
O2287      C2288   1.294       .  A
C2288      C2537   1.484       .  S
O2289      H2308   0.990       .  S
O2289      H2312   0.990       .  S
O2290      H2304   0.990       .  S
O2290      H2311   0.989       .  S
O2291      C2295   1.277       .  A
O2293      H2303   0.989       .  S
C2295      C2497   1.483       .  S
C2318      C2320   1.519       .  S
C2318      C2322   1.523       .  S
C2318      C2321   1.549       .  S
C2318      C2517   1.531       .  S
C2319      C2323   1.537       .  S
C2319      C2325   1.571       .  S
C2319      C2324   1.586       .  S
C2319      C2507   1.562       .  S
C2320      C2328   1.378       .  A
C2320      C2323   1.370       .  A
C2321      C2332   1.384       .  A
C2321      C2324   1.415       .  A
C2322      C2336   1.371       .  A
C2322      C2325   1.390       .  A
C2323      C2326   1.382       .  A
C2324      C2330   1.397       .  A
C2325      C2333   1.406       .  A
C2326      N2327   1.355       .  A
C2326      H2339   1.081       .  S
N2327      C2328   1.352       .  A
C2328      H2329   1.081       .  S
C2330      N2331   1.367       .  A
C2330      H2340   1.081       .  S
N2331      C2332   1.359       .  A
N2331      N2354   1.427       .  S
C2332      H2338   1.080       .  S
C2333      N2334   1.370       .  A
C2333      H2335   1.082       .  S
N2334      C2336   1.345       .  A
N2334      C2617   1.446       .  S
C2336      H2337   1.083       .  S
C2341      C2343   1.531       .  S
C2341      C2345   1.541       .  S
C2341      C2344   1.564       .  S
C2341      C2474   1.544       .  S
C2342      C2346   1.533       .  S
C2342      C2348   1.537       .  S
C2342      C2347   1.568       .  S
C2342      C2484   1.554       .  S
C2343      C2351   1.381       .  A
C2343      C2346   1.376       .  A
C2344      C2355   1.392       .  A
C2344      C2347   1.408       .  A
C2345      C2359   1.388       .  A
C2345      C2348   1.399       .  A
C2346      C2349   1.376       .  A
C2347      C2353   1.391       .  A
C2348      C2356   1.375       .  A
C2349      N2350   1.359       .  A
C2349      H2362   1.076       .  S
N2350      C2351   1.358       .  A
N2350      N2439   1.414       .  S
C2351      H2352   1.081       .  S
C2353      N2354   1.365       .  A
C2353      H2363   1.078       .  S
N2354      C2355   1.360       .  A
C2355      H2361   1.081       .  S
C2356      N2357   1.356       .  A
C2356      H2358   1.081       .  S
N2357      C2359   1.360       .  A
C2359      H2360   1.082       .  S
Zr2364     O2365   2.438       .  S
Zr2364     O2366   2.478       .  S
Zr2364     O2367   2.494       .  S
Zr2364     O2370   2.482       .  S
Zr2364     O2372   2.404       .  S
Zr2364     O2373   2.395       .  S
Zr2364     O2375   2.416       .  S
O2365      H2421   0.990       .  S
O2365      H2429   0.990       .  S
O2366      C2386   1.292       .  A
O2367      C2388   1.296       .  A
O2368     Zr2378   2.401       .  S
O2368      C2387   1.277       .  A
O2369     Zr2377   2.388       .  S
O2370      C2387   1.296       .  A
O2371     Zr2379   2.447       .  S
O2371      C2386   1.284       .  A
O2372     Zr2379   2.353       .  S
O2373     Zr2378   2.381       .  S
O2373     Zr2379   2.377       .  S
O2373      H2408   0.956       .  S
O2374     Zr2377   2.428       .  S
O2374     Zr2394   2.408       .  S
O2374      H2411   0.967       .  S
O2375     Zr2378   2.401       .  S
Zr2376     O2401   2.433       .  S
Zr2376     O2395   2.419       .  S
Zr2376     O2403   2.378       .  S
Zr2376     O2391   2.385       .  S
Zr2376     O2383   2.409       .  S
Zr2376     O2384   2.365       .  S
Zr2376     O2385   2.380       .  S
Zr2377     O2396   2.436       .  S
Zr2377     O2389   2.433       .  S
Zr2377     O2390   2.505       .  S
Zr2377     O2383   2.383       .  S
Zr2377     O2384   2.372       .  S
Zr2378     O2380   2.435       .  S
Zr2378     O2402   2.436       .  S
Zr2378     O2404   2.433       .  S
Zr2378     O2382   2.280       .  S
Zr2379     O2405   2.437       .  S
Zr2379     O2406   2.433   1_565  S
Zr2379     O2381   2.434       .  S
Zr2379     O2382   2.309       .  S
O2380      H2417   0.990       .  S
O2381      H2412   0.990   1_565  S
O2381      H2426   0.990       .  S
O2383      H2409   0.962       .  S
O2384     Zr2394   2.372       .  S
O2385     Zr2394   2.372       .  S
O2385      H2410   0.967       .  S
C2386      C2454   1.498       .  S
C2387      C2477   1.501       .  S
C2388      C2547   1.478       .  S
O2389      H2425   0.990       .  S
O2390      C2392   1.288       .  A
O2391      C2392   1.262       .  A
C2392      C2464   1.525       .  S
O2393     Zr2394   2.436       .  S
O2393      H2422   0.990       .  S
Zr2394     O2397   2.436       .  S
Zr2394     O2398   2.438       .  S
Zr2394     O2399   2.460       .  S
O2395      C2400   1.283       .  A
O2396      H2413   0.990       .  S
O2396      H2428   0.990       .  S
O2397      H2414   0.990       .  S
O2398      H2418   0.990       .  S
O2398      H2427   0.990       .  S
O2399      C2400   1.290       .  A
C2400      C2487   1.486       .  S
O2401      H2420   0.984       .  S
O2401      H2424   0.989       .  S
O2402      H2416   0.995       .  S
O2402      H2423   0.978       .  S
O2403      C2407   1.259       .  A
O2405      H2415   0.991       .  S
C2407      C2494   1.479       .  S
C2430      C2432   1.545       .  S
C2430      C2434   1.547       .  S
C2430      C2433   1.552       .  S
C2430      C2467   1.555       .  S
C2431      C2435   1.537       .  S
C2431      C2437   1.572       .  S
C2431      C2436   1.559       .  S
C2431      C2457   1.561       .  S
C2432      C2440   1.380       .  A
C2432      C2435   1.380       .  A
C2433      C2444   1.397       .  A
C2433      C2436   1.392       .  A
C2434      C2448   1.385       .  A
C2434      C2437   1.428       .  A
C2435      C2438   1.385       .  A
C2436      C2442   1.396       .  A
C2437      C2445   1.404       .  A
C2438      N2439   1.353       .  A
C2438      H2451   1.079       .  S
N2439      C2440   1.351       .  A
C2440      H2441   1.072       .  S
C2442      N2443   1.367       .  A
C2442      H2452   1.081       .  S
N2443      C2444   1.366       .  A
C2444      H2450   1.081       .  S
C2445      N2446   1.357       .  A
C2445      H2447   1.081       .  S
N2446      C2448   1.340       .  A
N2446      C2557   1.444       .  S
C2448      H2449   1.079       .  S
C2453      C2454   1.409       .  A
C2453      C2458   1.408       .  A
C2453     Br2460   1.920       .  S
C2454      C2455   1.411       .  A
C2455      C2456   1.423       .  A
C2455     Br2462   1.926       .  S
C2456      C2457   1.421       .  A
C2456     Br2461   1.927       .  S
C2457      C2458   1.425       .  A
C2458     Br2459   1.944       .  S
C2463      C2464   1.436       .  A
C2463      C2468   1.407       .  A
C2463     Br2470   1.932       .  S
C2464      C2465   1.426       .  A
C2465      C2466   1.424       .  A
C2465     Br2472   1.929       .  S
C2466      C2467   1.413       .  A
C2466     Br2471   1.933       .  S
C2467      C2468   1.403       .  A
C2468     Br2469   1.943       .  S
C2473      C2474   1.414       .  A
C2473      C2478   1.394       .  A
C2473     Br2480   1.935       .  S
C2474      C2475   1.435       .  A
C2475      C2476   1.419       .  A
C2475     Br2482   1.936       .  S
C2476      C2477   1.409       .  A
C2476     Br2481   1.933       .  S
C2477      C2478   1.416       .  A
C2478     Br2479   1.928       .  S
C2483      C2484   1.416       .  A
C2483      C2488   1.415       .  A
C2483     Br2490   1.925       .  S
C2484      C2485   1.429       .  A
C2485      C2486   1.408       .  A
C2485     Br2492   1.941       .  S
C2486      C2487   1.407       .  A
C2486     Br2491   1.934       .  S
C2487      C2488   1.410       .  A
C2488     Br2489   1.927       .  S
C2493      C2494   1.430       .  A
C2493      C2498   1.410       .  A
C2493     Br2500   1.941       .  S
C2494      C2495   1.431       .  A
C2495      C2496   1.409       .  A
C2495     Br2502   1.926       .  S
C2496      C2497   1.394       .  A
C2496     Br2501   1.922       .  S
C2497      C2498   1.400       .  A
C2498     Br2499   1.921       .  S
C2503      C2504   1.402       .  A
C2503      C2508   1.407       .  A
C2503     Br2510   1.936       .  S
C2504      C2505   1.412       .  A
C2505      C2506   1.418       .  A
C2505     Br2512   1.943       .  S
C2506      C2507   1.440       .  A
C2506     Br2511   1.941       .  S
C2507      C2508   1.435       .  A
C2508     Br2509   1.935       .  S
C2513      C2514   1.391       .  A
C2513      C2518   1.390       .  A
C2513     Br2520   1.943       .  S
C2514      C2515   1.405       .  A
C2515      C2516   1.408       .  A
C2515     Br2522   1.927       .  S
C2516      C2517   1.416       .  A
C2516     Br2521   1.927       .  S
C2517      C2518   1.435       .  A
C2518     Br2519   1.940       .  S
C2523      C2524   1.426       .  A
C2523      C2528   1.410       .  A
C2523     Br2530   1.927       .  S
C2524      C2525   1.406       .  A
C2525      C2526   1.409       .  A
C2525     Br2532   1.937       .  S
C2526      C2527   1.439       .  A
C2526     Br2531   1.944       .  S
C2527      C2528   1.401       .  A
C2528     Br2529   1.921       .  S
C2533      C2534   1.438       .  A
C2533      C2538   1.408       .  A
C2533     Br2540   1.939       .  S
C2534      C2535   1.411       .  A
C2535      C2536   1.416       .  A
C2535     Br2542   1.922       .  S
C2536      C2537   1.414       .  A
C2536     Br2541   1.924       .  S
C2537      C2538   1.398       .  A
C2538     Br2539   1.930       .  S
C2543      C2548   1.416       .  A
C2543     Br2550   1.923       .  S
C2544      C2545   1.408       .  A
C2545      C2546   1.405       .  A
C2545     Br2552   1.915       .  S
C2546      C2547   1.408       .  A
C2546     Br2551   1.933       .  S
C2548     Br2549   1.926       .  S
C2553      C2554   1.413       .  A
C2553      C2558   1.415       .  A
C2553     Br2560   1.929       .  S
C2554      C2555   1.412       .  A
C2555      C2556   1.410       .  A
C2555     Br2562   1.928       .  S
C2556      C2557   1.407       .  A
C2556     Br2561   1.925       .  S
C2557      C2558   1.411       .  A
C2558     Br2559   1.925       .  S
C2563      C2564   1.417       .  A
C2563      C2568   1.409       .  A
C2563     Br2570   1.925       .  S
C2564      C2565   1.440       .  A
C2565      C2566   1.391       .  A
C2565     Br2572   1.943       .  S
C2566      C2567   1.391       .  A
C2566     Br2571   1.945       .  S
C2567      C2568   1.404       .  A
C2568     Br2569   1.927       .  S
C2573      C2574   1.428       .  A
C2573      C2578   1.422       .  A
C2573     Br2580   1.931       .  S
C2574      C2575   1.415       .  A
C2575      C2576   1.407       .  A
C2575     Br2582   1.945       .  S
C2576      C2577   1.432       .  A
C2576     Br2581   1.941       .  S
C2577      C2578   1.411       .  A
C2578     Br2579   1.928       .  S
C2583      C2584   1.413       .  A
C2583      C2588   1.420       .  A
C2583     Br2590   1.919   1_455  S
C2584      C2585   1.441       .  A
C2585      C2586   1.407       .  A
C2585     Br2592   1.939       .  S
C2586      C2587   1.395       .  A
C2586     Br2591   1.931       .  S
C2587      C2588   1.413       .  A
C2588     Br2589   1.924   1_455  S
C2593      C2594   1.396       .  A
C2593      C2598   1.418       .  A
C2593     Br2600   1.937       .  S
C2594      C2595   1.409       .  A
C2595      C2596   1.417       .  A
C2595     Br2602   1.938       .  S
C2596      C2597   1.433       .  A
C2596     Br2601   1.930       .  S
C2597      C2598   1.454       .  A
C2598     Br2599   1.944       .  S
C2603      C2604   1.407       .  A
C2603      C2608   1.415       .  A
C2603     Br2610   1.924       .  S
C2604      C2605   1.412       .  A
C2605      C2606   1.410       .  A
C2605     Br2612   1.918       .  S
C2606      C2607   1.410       .  A
C2606     Br2611   1.932       .  S
C2607      C2608   1.413       .  A
C2608     Br2609   1.926       .  S
C2613      C2614   1.411       .  A
C2613      C2618   1.408       .  A
C2613     Br2620   1.933       .  S
C2614      C2615   1.413       .  A
C2615      C2616   1.417       .  A
C2615     Br2622   1.924       .  S
C2616      C2617   1.408       .  A
C2616     Br2621   1.922       .  S
C2617      C2618   1.410       .  A
C2618     Br2619   1.919       .  S
C2623      C2624   1.432       .  A
C2623      C2628   1.406       .  A
C2623     Br2630   1.925       .  S
C2624      C2625   1.431       .  A
C2625      C2626   1.410       .  A
C2625     Br2632   1.945       .  S
C2626      C2627   1.403       .  A
C2626     Br2631   1.919       .  S
C2627      C2628   1.390       .  A
C2628     Br2629   1.923       .  S
C2633      C2634   1.407       .  A
C2633      C2638   1.409       .  A
C2633     Br2640   1.943       .  S
C2634      C2635   1.431       .  A
C2635      C2636   1.422       .  A
C2635     Br2642   1.934       .  S
C2636      C2637   1.410       .  A
C2636     Br2641   1.928       .  S
C2637      C2638   1.439       .  A
C2638     Br2639   1.942       .  S
C2643      C2644   1.418       .  A
C2643      C2648   1.413       .  A
C2643     Br2650   1.923       .  S
C2644      C2645   1.453       .  A
C2645      C2646   1.393       .  A
C2645     Br2652   1.948       .  S
C2646      C2647   1.384       .  A
C2646     Br2651   1.944       .  S
C2647      C2648   1.408       .  A
C2648     Br2649   1.929       .  S
C2653      C2654   1.426       .  A
C2653      C2658   1.413       .  A
C2653     Br2660   1.943       .  S
C2654      C2655   1.400       .  A
C2655      C2656   1.422       .  A
C2655     Br2662   1.929   1_655  S
C2656      C2657   1.442       .  A
C2656     Br2661   1.934   1_655  S
C2657      C2658   1.423       .  A
C2658     Br2659   1.937       .  S
C2663      C2664   1.417       .  A
C2663      C2668   1.420       .  A
C2663     Br2670   1.923   1_655  S
C2664      C2665   1.437       .  A
C2665      C2666   1.411       .  A
C2665     Br2672   1.942       .  S
C2666      C2667   1.403       .  A
C2666     Br2671   1.935       .  S
C2667      C2668   1.413       .  A
C2668     Br2669   1.928   1_655  S
