geometry optimzed in LAMMPS
_audit_creation_date              2020-12-01 
_audit_creation_method            'lammps2cif' 
_symmetry_space_group_name_H-M    'P1' 
_symmetry_Int_Tables_number       1 
_symmetry_cell_setting            triclinic 
loop_ 
_symmetry_equiv_pos_as_xyz 
  x,y,z 
_cell_length_a                    43.8494951 
_cell_length_b                    46.3034215018679 
_cell_length_c                    44.125522400991166 
_cell_angle_alpha                 90.3659297782406 
_cell_angle_beta                  89.6243569136367 
_cell_angle_gamma                 89.40276720129057 
loop_ 
_atom_site_label 
_atom_site_type_symbol 
_atom_site_fract_x 
_atom_site_fract_y 
_atom_site_fract_z 
_atom_site_charge 
C1          C  0.48527239  0.28613505  0.13176604     0.30200
C2          C  0.53543728  0.25147171  0.13967396     0.30200
C3          C  0.48547926  0.26816041  0.16115059    -0.06000
C4          C  0.49099131  0.26299461  0.10701973    -0.06800
C5          C  0.51645695  0.30175857  0.13302694    -0.06600
C6          C  0.51061823  0.25002143  0.16421803    -0.06000
C7          C  0.51735753  0.24503292  0.11052544    -0.06800
C8          C  0.54167877  0.28367144  0.13580286    -0.06600
C9          C  0.50109943  0.22618100  0.18022787    -0.32000
N10         N  0.47155907  0.22952365  0.18855868     0.14500
C11         C  0.46210312  0.25538936  0.17759539    -0.32000
H12         H  0.43935370  0.26398027  0.18037356     0.16400
C13         C  0.52744229  0.23880939  0.08122240    -0.31000
N14         N  0.50757466  0.25072343  0.06138611     0.13200
C15         C  0.48578815  0.26552639  0.07661351    -0.31000
C16         C  0.56698286  0.30037731  0.13940655    -0.31300
N17         N  0.55816498  0.32839214  0.14194203     0.13700
H18         H  0.58956174  0.29214163  0.14437447     0.16300
C19         C  0.52735994  0.32940767  0.13831103    -0.31300
H20         H  0.51389162  0.34846464  0.14298536     0.16300
H21         H  0.46906035  0.27951420  0.06609848     0.16300
H22         H  0.51410975  0.20634391  0.18252981     0.16400
H23         H  0.54868264  0.22825222  0.07485860     0.16300
C24         C  0.96696769  0.02158974  0.11845577     0.30200
C25         C  0.99972913  0.46647737  0.12454475     0.30200
C26         C  0.94515554  0.48113252  0.11744106    -0.06000
C27         C  0.99314087  0.02081768  0.09483476    -0.06800
C28         C  0.98395309  0.02065147  0.14877701    -0.06600
C29         C  0.96598553  0.45787892  0.11957016    -0.06000
C30         C  0.00572683  0.48461487  0.09620435    -0.06800
C31         C  0.00539308  0.99847144  0.15131192    -0.06600
C32         C  0.95016883  0.43454849  0.13048234    -0.32000
N33         N  0.92238636  0.44349560  0.14011094     0.14500
C34         C  0.91942385  0.47168176  0.13273461    -0.32000
H35         H  0.90296976  0.48570708  0.14396245     0.16400
C36         C  0.01436451  0.47527580  0.06759219    -0.31000
N37         N  0.01112830  0.00874921  0.04932442     0.13200
C38         C  0.99140590  0.02638309  0.06424463    -0.31000
C39         C  0.02815935  0.00858297  0.16996605    -0.31300
N40         N  0.02049924  0.03523512  0.18007475     0.13700
H41         H  0.05012856  0.99823788  0.17358958     0.16300
C42         C  0.99359391  0.04270434  0.16764515    -0.31300
H43         H  0.98373689  0.06385798  0.17010407     0.16300
H44         H  0.97360702  0.03880778  0.05332114     0.16300
H45         H  0.96023846  0.41412636  0.13703549     0.16400
H46         H  0.02640280  0.45540833  0.06203013     0.16300
C47         C  0.48119112  0.22000782  0.45169800     0.30200
C48         C  0.52754149  0.25839187  0.44143319     0.30200
C49         C  0.47744439  0.24011507  0.42424049    -0.06000
C50         C  0.48806254  0.24058447  0.98448676    -0.06800
C51         C  0.51339181  0.20660677  0.44614571    -0.06600
C52         C  0.50059052  0.25968191  0.41967392    -0.06000
C53         C  0.51351514  0.25941070  0.98093640    -0.06800
C54         C  0.53664325  0.22638698  0.44195718    -0.06600
C55         C  0.48869028  0.28239855  0.40315129    -0.32000
N56         N  0.45925995  0.27683581  0.39650780     0.14500
C57         C  0.45239449  0.25113724  0.40916883    -0.32000
H58         H  0.42981381  0.24241588  0.40945709     0.16400
C59         C  0.52541203  0.26255914  0.00991111    -0.31000
N60         N  0.50777492  0.24778502  0.02975671     0.13200
C61         C  0.48545960  0.23432310  0.01463262    -0.31000
C62         C  0.56332010  0.21135340  0.43724827    -0.31300
N63         N  0.55724312  0.18274818  0.43634628     0.13700
H64         H  0.58499217  0.22095579  0.43151315     0.16300
C65         C  0.52686019  0.17964951  0.44168353    -0.31300
H66         H  0.51561370  0.15944656  0.43954074     0.16300
H67         H  0.46950312  0.21949877  0.02478397     0.16300
H68         H  0.50026416  0.30231331  0.39809550     0.16400
H69         H  0.54605144  0.27380346  0.01589887     0.16300
C70         C  0.95935116  0.48564713  0.45171677     0.30200
C71         C  0.00751637  0.01826010  0.45187543     0.30200
C72         C  0.95195872  0.00709285  0.45407889    -0.06000
C73         C  0.98719156  0.47890956  0.96864381    -0.06800
C74         C  0.97682179  0.48578956  0.42145444    -0.06600
C75         C  0.97396967  0.02891334  0.45482912    -0.06000
C76         C  0.01392069  0.00653766  0.96879884    -0.06800
C77         C  0.99795034  0.50783467  0.41827124    -0.06600
C78         C  0.96048515  0.05382828  0.44392084    -0.32000
N79         N  0.93363456  0.04702835  0.43129312     0.14500
C80         C  0.92820299  0.01902995  0.43758128    -0.32000
H81         H  0.91160002  0.00692107  0.42493655     0.16400
C82         C  0.02327722  0.01724705  0.99634752    -0.31000
N83         N  0.00921757  0.00235712  0.01842676     0.13200
C84         C  0.98348156  0.47249303  0.99902193    -0.31000
C85         C  0.02159898  0.49681549  0.40062012    -0.31300
N86         N  0.01496382  0.46958537  0.39210076     0.13700
H87         H  0.04328440  0.50709856  0.39671401     0.16300
C88         C  0.98757902  0.46301131  0.40397321    -0.31300
H89         H  0.97794184  0.44174103  0.40230155     0.16300
H90         H  0.96472245  0.46058799  0.00871508     0.16300
H91         H  0.97209006  0.07385220  0.43937452     0.16400
H92         H  0.03656014  0.03645685  0.00023172     0.16300
Fe93       Fe  0.60101332  0.34385527  0.29655640     1.65800
Fe94       Fe  0.61513177  0.39851068  0.34490983     1.73200
Fe95       Fe  0.66456411  0.38179948  0.28636548     1.54400
O96         O  0.67277881  0.33690517  0.27838537    -0.81500
O97         O  0.62397490  0.43658103  0.32255752    -0.79800
O98         O  0.63548795  0.31511602  0.30360024    -0.84000
O99         O  0.61245486  0.34794241  0.25136479    -0.78800
O100        O  0.68963991  0.37739880  0.32459843    -0.80600
O101        O  0.56873959  0.40232710  0.32879436    -0.83300
C102        C  0.62215360  0.36905825  0.23608855     0.97400
C103        C  0.66148641  0.31458571  0.29103956     1.04900
O104        O  0.62691048  0.37512677  0.30958255    -1.12300
O105        O  0.60445429  0.36376073  0.37278844    -0.74800
O106        O  0.58494822  0.33374246  0.33916582    -0.78200
O107        O  0.64080147  0.38704558  0.24666822    -0.78900
C108        C  0.59048880  0.34075249  0.36637329     0.96300
O109        O  0.56553981  0.37164870  0.28936811    -0.76900
O110        O  0.66061185  0.39520889  0.36267685    -0.82100
C111        C  0.64419458  0.44472762  0.30389291     0.99000
C112        C  0.68577123  0.38429322  0.35220653     1.04900
O113        O  0.66271785  0.42699039  0.29118471    -0.77700
C114        C  0.55440880  0.39169867  0.30581761     1.03200
Fe115      Fe  0.60680673  0.16901974  0.28035822     1.65800
Fe116      Fe  0.62206380  0.11294415  0.23586073     1.73200
Fe117      Fe  0.67021016  0.13044795  0.29309427     1.54400
O118        O  0.68406124  0.17335765  0.28681981    -0.81500
O119        O  0.63902780  0.07530040  0.25537306    -0.79800
O120        O  0.64013231  0.19475474  0.29832188    -0.84000
O121        O  0.60004647  0.15018309  0.32147934    -0.78800
O122        O  0.69578655  0.12029454  0.25517838    -0.80600
O123        O  0.57947278  0.10381476  0.25871068    -0.83300
C124        C  0.62008652  0.14289038  0.34071422     0.97400
C125        C  0.66831938  0.19598464  0.29250743     1.04900
O126        O  0.63365436  0.13734690  0.26957427    -1.12300
O127        O  0.60366767  0.14804040  0.21096053    -0.74800
O128        O  0.61403970  0.18693954  0.23879798    -0.78200
O129        O  0.64826153  0.13994623  0.33406919    -0.78900
C130        C  0.60593685  0.17547463  0.21386997     0.96300
O131        O  0.56849265  0.14949866  0.26368952    -0.76900
O132        O  0.66494934  0.12143507  0.21481133    -0.82100
C133        C  0.64946986  0.06832548  0.28119250     0.99000
C134        C  0.69158659  0.12247723  0.22683183     1.04900
O135        O  0.65911634  0.08713284  0.29997160    -0.77700
C136        C  0.56156622  0.12368570  0.26888686     1.03200
Fe137      Fe  0.39071503  0.33416177  0.25082208     1.65800
Fe138      Fe  0.37329374  0.39880225  0.22217976     1.73200
Fe139      Fe  0.33777573  0.37552774  0.28649535     1.54400
O140        O  0.32556265  0.33143571  0.28731170    -0.81500
O141        O  0.35899575  0.43373740  0.24644880    -0.79800
O142        O  0.35244711  0.30927143  0.25094420    -0.84000
O143        O  0.39389488  0.33126844  0.29649348    -0.78800
O144        O  0.30469486  0.38277544  0.25391809    -0.80600
O145        O  0.41813527  0.40440392  0.23983734    -0.83300
C146        C  0.38689672  0.34506576  0.32034750     0.97400
C147        C  0.33227693  0.30892828  0.27160626     1.04900
O148        O  0.36719939  0.36967957  0.25326631    -1.12300
O149        O  0.39051036  0.37317943  0.18751231    -0.74800
O150        O  0.39079864  0.32897456  0.20483722    -0.78200
O151        O  0.36941445  0.36713977  0.32042773    -0.78900
C152        C  0.39474814  0.34650776  0.18366157     0.96300
O153        O  0.43029750  0.35839159  0.25179476    -0.76900
O154        O  0.32754178  0.39114385  0.20852719    -0.82100
C155        C  0.35159115  0.43987851  0.27322765     0.99000
C156        C  0.30385660  0.38557717  0.22507837     1.04900
O157        O  0.34576935  0.42015894  0.29229778    -0.77700
C158        C  0.43630977  0.38540771  0.25152647     1.03200
Fe159      Fe  0.39610875  0.16937019  0.33335934     1.65800
Fe160      Fe  0.38157603  0.10335878  0.35728233     1.73200
Fe161      Fe  0.34760006  0.12755390  0.29296513     1.54400
O162        O  0.33254965  0.17073282  0.29175379    -0.81500
O163        O  0.36870806  0.06862599  0.33219026    -0.79800
O164        O  0.35845112  0.19506257  0.32643170    -0.84000
O165        O  0.40767221  0.17060765  0.28838872    -0.78800
O166        O  0.31358027  0.11866076  0.32451441    -0.80600
O167        O  0.42675300  0.09927278  0.33976212    -0.83300
C168        C  0.40158721  0.15766194  0.26374842     0.97400
C169        C  0.33815168  0.19390893  0.30625462     1.04900
O170        O  0.37483691  0.13337050  0.32737317    -1.12300
O171        O  0.39776960  0.12923454  0.39221634    -0.74800
O172        O  0.38591496  0.17322525  0.37891879    -0.78200
O173        O  0.38123314  0.13821912  0.26136197    -0.78900
C174        C  0.39573939  0.15582098  0.39840897     0.96300
O175        O  0.43677254  0.14657380  0.34031693    -0.76900
O176        O  0.33525460  0.10973158  0.37033121    -0.82100
C177        C  0.36191424  0.06285022  0.30526366     0.99000
C178        C  0.31190487  0.11490576  0.35328186     1.04900
O179        O  0.35719570  0.08299931  0.28631102    -0.77700
C180        C  0.44505773  0.12038729  0.33510369     1.03200
Fe181      Fe  0.09259070  0.40977163  0.24707830     1.65800
Fe182      Fe  0.11217637  0.34466755  0.22393690     1.73200
Fe183      Fe  0.14515799  0.37196038  0.28650920     1.54400
O184        O  0.15922041  0.41508120  0.28409880    -0.81500
O185        O  0.13327065  0.31237308  0.24799664    -0.79800
O186        O  0.12832770  0.43729735  0.25159935    -0.84000
O187        O  0.08227328  0.41306969  0.29178455    -0.78800
O188        O  0.17849165  0.36137212  0.25400490    -0.80600
O189        O  0.06973964  0.33706929  0.24533130    -0.83300
C190        C  0.09028321  0.40187737  0.31661657     0.97400
C191        C  0.15103725  0.43726937  0.26912086     1.04900
O192        O  0.11679509  0.37560839  0.25326928    -1.12300
O193        O  0.08799194  0.36785289  0.19099538    -0.74800
O194        O  0.10219274  0.41132124  0.20155160    -0.78200
O195        O  0.11260579  0.38414299  0.31912384    -0.78900
C196        C  0.08837133  0.39432486  0.18451790     0.96300
O197        O  0.05400763  0.38345177  0.24349719    -0.76900
O198        O  0.15594036  0.35615954  0.20796915    -0.82100
C199        C  0.13599305  0.30747626  0.27585389     0.99000
C200        C  0.17951869  0.36064932  0.22485598     1.04900
O201        O  0.13500283  0.32819682  0.29490801    -0.77700
C202        C  0.04940329  0.35689083  0.25027077     1.03200
Fe203      Fe  0.10061819  0.07897981  0.33058298     1.65800
Fe204      Fe  0.11643577  0.14361588  0.35719324     1.73200
Fe205      Fe  0.15073593  0.12045779  0.29242647     1.54400
O206        O  0.16529716  0.07704404  0.29009979    -0.81500
O207        O  0.13339383  0.17839311  0.33469207    -0.79800
O208        O  0.13774190  0.05274612  0.32363907    -0.84000
O209        O  0.08984781  0.07860090  0.28565025    -0.78800
O210        O  0.18409236  0.12839709  0.32479390    -0.80600
O211        O  0.07304520  0.15015691  0.33709212    -0.83300
C212        C  0.09615669  0.09278125  0.26195510     0.97400
C213        C  0.15890234  0.05388087  0.30412601     1.04900
O214        O  0.12299108  0.11429384  0.32619748    -1.12300
O215        O  0.09557802  0.11770531  0.38990399    -0.74800
O216        O  0.11039027  0.07476031  0.37610037    -0.78200
O217        O  0.11742754  0.11133277  0.26045174    -0.78900
C218        C  0.09710098  0.09094455  0.39496321     0.96300
O219        O  0.06060987  0.10337537  0.33668471    -0.76900
O220        O  0.16157038  0.13428380  0.37123590    -0.82100
C221        C  0.13794496  0.18475121  0.30744867     0.99000
C222        C  0.18523608  0.13024680  0.35386345     1.04900
O223        O  0.14077087  0.16497795  0.28744780    -0.77700
C224        C  0.05423974  0.12981330  0.33073735     1.03200
Fe225      Fe  0.89003644  0.41596980  0.32254875     1.65800
Fe226      Fe  0.87694702  0.35153045  0.35491327     1.73200
Fe227      Fe  0.83406584  0.37477566  0.29458285     1.54400
O228        O  0.82366971  0.41913905  0.29183721    -0.81500
O229        O  0.86494575  0.31646834  0.33021602    -0.79800
O230        O  0.85142600  0.44117351  0.32660428    -0.84000
O231        O  0.88757041  0.41728110  0.27615904    -0.78800
O232        O  0.80461849  0.37058725  0.33061374    -0.80600
O233        O  0.92157942  0.34734021  0.33505193    -0.83300
C234        C  0.87929846  0.40169307  0.25397910     0.97400
C235        C  0.83155266  0.44192874  0.30596059     1.04900
O236        O  0.86702556  0.38040407  0.32413761    -1.12300
O237        O  0.89204566  0.37864337  0.38909483    -0.74800
O238        O  0.89576942  0.42158740  0.36837865    -0.78200
O239        O  0.86252986  0.37973261  0.25751644    -0.78900
C240        C  0.89722982  0.40528081  0.39108121     0.96300
O241        O  0.92976039  0.39206058  0.31716435    -0.76900
O242        O  0.83127717  0.35625260  0.37187351    -0.82100
C243        C  0.85056100  0.31029532  0.30660254     0.99000
C244        C  0.80631751  0.36423131  0.35867012     1.04900
O245        O  0.83867040  0.32976425  0.29021462    -0.77700
C246        C  0.93744853  0.36550466  0.31962641     1.03200
Fe247      Fe  0.89784270  0.08339645  0.24870187     1.65800
Fe248      Fe  0.88473314  0.15021809  0.22366085     1.73200
Fe249      Fe  0.84377108  0.12423290  0.28353663     1.54400
O250        O  0.83160797  0.08057623  0.28353562    -0.81500
O251        O  0.86949547  0.18427331  0.24903419    -0.79800
O252        O  0.85956161  0.05865470  0.24817771    -0.84000
O253        O  0.90117402  0.08051044  0.29523697    -0.78800
O254        O  0.81328787  0.13256235  0.24913928    -0.80600
O255        O  0.92828394  0.15294055  0.24535726    -0.83300
C256        C  0.89280782  0.09440503  0.31892464     0.97400
C257        C  0.83888074  0.05821059  0.26815950     1.04900
O258        O  0.87522255  0.11947580  0.25206597    -1.12300
O259        O  0.90316113  0.12533478  0.18838734    -0.74800
O260        O  0.89615063  0.08043413  0.20224810    -0.78200
O261        O  0.87391029  0.11542507  0.31812229    -0.78900
C262        C  0.90285752  0.09868203  0.18233248     0.96300
O263        O  0.93871240  0.10555345  0.24896689    -0.76900
O264        O  0.83930978  0.14562181  0.20662885    -0.82100
C265        C  0.85712927  0.18887372  0.27434630     0.99000
C266        C  0.81437870  0.13905492  0.22098220     1.04900
O267        O  0.84947674  0.16835031  0.29151802    -0.77700
C268        C  0.94521214  0.13184284  0.25469900     1.03200
C269        C  0.85440463  0.22835673  0.31348289    -0.21100
C270        C  0.85175698  0.21949505  0.28326431    -0.09100
C271        C  0.84556020  0.24054893  0.26100266     0.29700
C272        C  0.84383215  0.26995965  0.26870051    -0.21100
C273        C  0.84841436  0.27903544  0.29867820    -0.09100
C274        C  0.85288045  0.25772708  0.32118266     0.29700
F275        F  0.85622479  0.26522903  0.35075991    -0.19700
H276        H  0.85882025  0.21263265  0.33103362     0.18100
H277        H  0.83997123  0.28567213  0.25101983     0.18100
F278        F  0.84133736  0.23268114  0.23164449    -0.19700
C279        C  0.81711641  0.49381251  0.31505413    -0.21100
C280        C  0.82145705  0.47057500  0.29481773    -0.09100
C281        C  0.82309611  0.47629485  0.26354016     0.29700
C282        C  0.82438890  0.00800230  0.25377103    -0.21100
C283        C  0.82621969  0.02971162  0.27609447    -0.09100
C284        C  0.82391546  0.02186722  0.30677681     0.29700
F285        F  0.82680473  0.04200634  0.32904483    -0.19700
H286        H  0.81625939  0.48995681  0.33923197     0.18100
H287        H  0.82653851  0.01349089  0.23002636     0.18100
F288        F  0.82872967  0.45463376  0.24331210    -0.19700
C289        C  0.97521644  0.11572335  0.29926866    -0.21100
C290        C  0.97200675  0.13587922  0.27568853    -0.09100
C291        C  0.99473340  0.15712091  0.27295965     0.29700
C292        C  0.02063257  0.15675197  0.29235316    -0.21100
C293        C  0.02421620  0.13541963  0.31500475    -0.09100
C294        C  0.00043512  0.11544031  0.31848272     0.29700
F295        F  0.00196559  0.09451882  0.33984533    -0.19700
H296        H  0.95819920  0.09926787  0.30256261     0.18100
H297        H  0.03866772  0.17212554  0.28850881     0.18100
F298        F  0.99299810  0.17695488  0.25054266    -0.19700
C299        C  0.99330101  0.36476013  0.25352733    -0.21100
C300        C  0.01915218  0.35053678  0.26478436    -0.09100
C301        C  0.01657247  0.33693821  0.29336433     0.29700
C302        C  0.98941885  0.33981606  0.31104267    -0.21100
C303        C  0.96456013  0.35640084  0.30049351    -0.09100
C304        C  0.96661116  0.36754007  0.27082474     0.29700
F305        F  0.94299623  0.38253558  0.25879732    -0.19700
H306        H  0.99432883  0.37541913  0.23177116     0.18100
H307        H  0.98871223  0.33089800  0.33365025     0.18100
F308        F  0.04126123  0.32365131  0.30559979    -0.19700
C309        C  0.13078391  0.26735139  0.31411118    -0.21100
C310        C  0.13966357  0.27651161  0.28519244    -0.09100
C311        C  0.14991857  0.25523202  0.26413387     0.29700
C312        C  0.14952903  0.22567395  0.27133152    -0.21100
C313        C  0.13945097  0.21636325  0.29985378    -0.09100
C314        C  0.13074205  0.23784381  0.32147514     0.29700
F315        F  0.12130565  0.23047974  0.34972468    -0.19700
H316        H  0.12289885  0.28299276  0.33083477     0.18100
H317        H  0.15709717  0.21004559  0.25446092     0.18100
F318        F  0.16044791  0.26295355  0.23637854    -0.19700
C319        C  0.16810770  0.47518072  0.30461462    -0.21100
C320        C  0.16547614  0.46551214  0.27458147    -0.09100
C321        C  0.16733546  0.48582298  0.25100213     0.29700
C322        C  0.17473811  0.01857847  0.26444090    -0.21100
C323        C  0.17340325  0.02600389  0.29530053    -0.09100
C324        C  0.17692628  0.00395077  0.31691963     0.29700
F325        F  0.17666023  0.01044121  0.34696606    -0.19700
H326        H  0.16658782  0.46000153  0.32313970     0.18100
H327        H  0.17203812  0.03509223  0.24734817     0.18100
F328        F  0.16561231  0.47706869  0.22163758    -0.19700
C329        C  0.26775849  0.14637301  0.36687199    -0.21100
C330        C  0.28069462  0.11841302  0.36617872    -0.09100
C331        C  0.26107562  0.09465347  0.36790256     0.29700
C332        C  0.22921739  0.09887478  0.36813827    -0.21100
C333        C  0.21632512  0.12681765  0.36652310    -0.09100
C334        C  0.23597198  0.15058054  0.36685820     0.29700
F335        F  0.22451151  0.17770243  0.36341988    -0.19700
H336        H  0.28230673  0.16498880  0.36429829     0.18100
H337        H  0.21462771  0.08018759  0.36654163     0.18100
F338        F  0.27259110  0.06739044  0.36576709    -0.19700
C339        C  0.25131533  0.40206453  0.21073167    -0.21100
C340        C  0.27342117  0.37990223  0.21161156    -0.09100
C341        C  0.26343998  0.35106039  0.21002201     0.29700
C342        C  0.23214554  0.34460216  0.21015262    -0.21100
C343        C  0.21005411  0.36672672  0.21161942    -0.09100
C344        C  0.21998319  0.39558934  0.21059826     0.29700
F345        F  0.19936655  0.41755949  0.21317088    -0.19700
H346        H  0.25818656  0.42435474  0.21314817     0.18100
H347        H  0.22525174  0.32229166  0.21210627     0.18100
F348        F  0.28396133  0.32902342  0.21216852    -0.19700
C349        C  0.31929963  0.24368121  0.31926160    -0.21100
C350        C  0.32345474  0.22165416  0.29745722    -0.09100
C351        C  0.32119600  0.22888818  0.26661973     0.29700
C352        C  0.31984377  0.25795397  0.25795621    -0.21100
C353        C  0.31990711  0.28021865  0.27983820    -0.09100
C354        C  0.31687697  0.27270007  0.31056457     0.29700
F355        F  0.31583832  0.29342806  0.33244759    -0.19700
H356        H  0.32062856  0.23866291  0.34316567     0.18100
H357        H  0.32181030  0.26310247  0.23411039     0.18100
F358        F  0.32463425  0.20830451  0.24478971    -0.19700
C359        C  0.36655645  0.01018903  0.31934493    -0.21100
C360        C  0.35975222  0.03127994  0.29714729    -0.09100
C361        C  0.35070366  0.02145881  0.26840205     0.29700
C362        C  0.35171194  0.49210222  0.25764901    -0.21100
C363        C  0.35066434  0.47140351  0.28115122    -0.09100
C364        C  0.35070183  0.48146897  0.31119251     0.29700
F365        F  0.35035005  0.46268487  0.33468048    -0.19700
H366        H  0.37354871  0.01666598  0.34184759     0.18100
H367        H  0.35169838  0.48525657  0.23413847     0.18100
F368        F  0.34338736  0.04049316  0.24628541    -0.19700
C369        C  0.51417765  0.09452170  0.28614899    -0.21100
C370        C  0.53320936  0.11893241  0.28811518    -0.09100
C371        C  0.52421824  0.14101304  0.30875517     0.29700
C372        C  0.49728445  0.13935690  0.32565819    -0.21100
C373        C  0.47698778  0.11630546  0.32233824    -0.09100
C374        C  0.48616119  0.09333006  0.30278077     0.29700
F375        F  0.46738695  0.07061459  0.29833453    -0.19700
H376        H  0.52016484  0.07707794  0.27070784     0.18100
H377        H  0.49157836  0.15736408  0.34051545     0.18100
F378        F  0.54114381  0.16514257  0.31239541    -0.19700
C379        C  0.76370946  0.16082607  0.20898362    -0.21100
C380        C  0.78417451  0.13740251  0.20581864    -0.09100
C381        C  0.77186242  0.10978762  0.20071952     0.29700
C382        C  0.74016213  0.10527223  0.20257373    -0.21100
C383        C  0.71992385  0.12824383  0.20910490    -0.09100
C384        C  0.73198071  0.15637180  0.21045623     0.29700
F385        F  0.71345536  0.17905375  0.21785510    -0.19700
H386        H  0.77237158  0.18212573  0.21409432     0.18100
H387        H  0.73183518  0.08333124  0.20248488     0.18100
F388        F  0.79078975  0.08646871  0.19858350    -0.19700
C389        C  0.51509041  0.41602228  0.27246461    -0.21100
C390        C  0.52215486  0.39948088  0.29840933    -0.09100
C391        C  0.49929455  0.38170870  0.31020299     0.29700
C392        C  0.47133433  0.37878207  0.29532922    -0.21100
C393        C  0.46477377  0.39369713  0.26831780    -0.09100
C394        C  0.48645492  0.41362710  0.25784294     0.29700
F395        F  0.48109864  0.42890614  0.23226190    -0.19700
H396        H  0.53250762  0.42933794  0.26232394     0.18100
H397        H  0.45512933  0.36349379  0.30429850     0.18100
F398        F  0.50530645  0.36455092  0.33433423    -0.19700
C399        C  0.72449594  0.35019647  0.37211114    -0.21100
C400        C  0.71303400  0.37876493  0.37132821    -0.09100
C401        C  0.73342466  0.40133338  0.37704234     0.29700
C402        C  0.76496540  0.39563169  0.37897297    -0.21100
C403        C  0.77678217  0.36740053  0.37512106    -0.09100
C404        C  0.75601039  0.34451203  0.37393709     0.29700
F405        F  0.76633909  0.31704103  0.36960004    -0.19700
H406        H  0.70944064  0.33239152  0.36712590     0.18100
H407        H  0.78041610  0.41374267  0.37917854     0.18100
F408        F  0.72354160  0.42916527  0.37583456    -0.19700
C409        C  0.67884034  0.27146230  0.31878289    -0.21100
C410        C  0.67742943  0.28623376  0.29110131    -0.09100
C411        C  0.68197158  0.27049956  0.26404282     0.29700
C412        C  0.68393947  0.24012025  0.26476207    -0.21100
C413        C  0.68150516  0.22524385  0.29241157    -0.09100
C414        C  0.68061974  0.24130902  0.31948596     0.29700
F415        F  0.67720417  0.22771879  0.34644450    -0.16500
H416        H  0.67499763  0.28310793  0.33987310     0.18100
H417        H  0.68367438  0.22819832  0.24356510     0.18100
F418        F  0.68022776  0.28401202  0.23688579    -0.19700
C419        C  0.67349494  0.49006194  0.29135745    -0.21100
C420        C  0.64553585  0.47615820  0.29664015    -0.09100
C421        C  0.61846448  0.49276695  0.29543361     0.29700
C422        C  0.64571271  0.02807025  0.31939905    -0.21100
C423        C  0.64995255  0.03700843  0.28926329    -0.09100
C424        C  0.65314767  0.01558904  0.26654500     0.29700
F425        F  0.65735889  0.02303503  0.23713294    -0.19700
H426        H  0.69466574  0.47784911  0.29219391     0.18100
H427        H  0.64292734  0.04398478  0.33732932     0.18100
F428        F  0.59089226  0.48033702  0.29987254    -0.19700
C429        C  0.05992427  0.04416889  0.45606908    -0.21100
C430        C  0.03056284  0.04174586  0.44326838    -0.09100
C431        C  0.02467902  0.05765591  0.41656933     0.29700
C432        C  0.04536705  0.07707878  0.40528030    -0.21100
C433        C  0.07497914  0.07789708  0.41611452    -0.09100
C434        C  0.08248240  0.06128078  0.44178097     0.29700
F435        F  0.11151897  0.06074173  0.45219839    -0.19700
H436        H  0.06624865  0.03099897  0.47522377     0.18100
H437        H  0.03919572  0.08882387  0.38517840     0.18100
F438        F  0.00053346  0.05177848  0.39852083    -0.19700
C439        C  0.08494330  0.42946359  0.36462260    -0.21100
C440        C  0.07199051  0.41139813  0.34269958    -0.09100
C441        C  0.04014162  0.41080186  0.33970152     0.29700
C442        C  0.02170938  0.42939381  0.35663555    -0.21100
C443        C  0.03459466  0.44916954  0.37680190    -0.09100
C444        C  0.06634033  0.44829166  0.38174011     0.29700
F445        F  0.07941555  0.46592682  0.40248084    -0.19700
H446        H  0.10949737  0.43072157  0.36669613     0.18100
H447        H  0.99737986  0.42958737  0.35259086     0.18100
F448        F  0.02709595  0.39459206  0.31778574    -0.19700
C449        C  0.90645893  0.46223769  0.45032777    -0.21100
C450        C  0.93812385  0.45927942  0.45422499    -0.09100
C451        C  0.95040631  0.43107579  0.45081917     0.29700
C452        C  0.93492777  0.41080888  0.43286455    -0.21100
C453        C  0.90665505  0.41826313  0.42019027    -0.09100
C454        C  0.89120905  0.44275273  0.43152806     0.29700
F455        F  0.86253675  0.44915131  0.42211657    -0.19700
H456        H  0.89419332  0.48090975  0.45882034     0.18100
H457        H  0.94678269  0.39130399  0.42559395     0.18100
F458        F  0.97969265  0.42530714  0.45877814    -0.19700
C459        C  0.91812296  0.05636349  0.34908035    -0.21100
C460        C  0.90473401  0.08403137  0.34824106    -0.09100
C461        C  0.90201626  0.10010011  0.37541380     0.29700
C462        C  0.91168664  0.08804677  0.40290168    -0.21100
C463        C  0.92374912  0.05989697  0.40350995    -0.09100
C464        C  0.92763418  0.04449292  0.37619309     0.29700
F465        F  0.94101116  0.01790319  0.37566847    -0.19700
H466        H  0.92086394  0.04342506  0.32868076     0.18100
H467        H  0.90946619  0.10042041  0.42372166     0.18100
F468        F  0.89018963  0.12729139  0.37544424    -0.19700
C469        C  0.57957023  0.29096974  0.38188751    -0.21100
C470        C  0.58069828  0.32005962  0.39027666    -0.09100
C471        C  0.56945005  0.32815467  0.41923236     0.29700
C472        C  0.55530204  0.30746385  0.43816995    -0.21100
C473        C  0.55202818  0.27854799  0.42838439    -0.09100
C474        C  0.56485427  0.27088889  0.39976822     0.29700
F475        F  0.55938839  0.24492628  0.38653657    -0.19700
H476        H  0.58801977  0.28393740  0.35987326     0.18100
H477        H  0.54461824  0.31460094  0.45912815     0.18100
F478        F  0.56974606  0.35625535  0.42810353    -0.19700
C479        C  0.45665731  0.16962494  0.45493848    -0.21100
C480        C  0.45363153  0.19981775  0.45626938    -0.09100
C481        C  0.42361837  0.21078541  0.45424939     0.29700
C482        C  0.40212225  0.19523470  0.43735750    -0.21100
C483        C  0.40947459  0.16729581  0.42666866    -0.09100
C484        C  0.43510726  0.15335855  0.43917367     0.29700
F485        F  0.44131868  0.12511061  0.43317109    -0.19700
H486        H  0.47577041  0.15883442  0.46472371     0.18100
H487        H  0.38132256  0.20592535  0.43028785     0.18100
F488        F  0.41702583  0.23832684  0.46303270    -0.19700
C489        C  0.44239224  0.32603221  0.38084043    -0.21100
C490        C  0.43786996  0.29585706  0.38158752    -0.09100
C491        C  0.41232984  0.28444617  0.36670713     0.29700
C492        C  0.39258625  0.30247761  0.35112332    -0.21100
C493        C  0.39861670  0.33196109  0.34803983    -0.09100
C494        C  0.42313837  0.34396036  0.36374476     0.29700
F495        F  0.43004373  0.37225839  0.36032288    -0.19700
H496        H  0.46151245  0.33563936  0.39236131     0.18100
H497        H  0.37459457  0.29264195  0.33803919     0.18100
F498        F  0.40797326  0.25557651  0.36417689    -0.19700
C499        C  0.56406483  0.14060351  0.40267668    -0.21100
C500        C  0.57688018  0.16162905  0.42177320    -0.09100
C501        C  0.60860009  0.16625208  0.41991673     0.29700
C502        C  0.62498123  0.15603487  0.39474539    -0.21100
C503        C  0.60988390  0.14046670  0.37217924    -0.09100
C504        C  0.58059705  0.12994465  0.37800418     0.29700
F505        F  0.56652378  0.11269653  0.35752528    -0.19700
H506        H  0.54019502  0.13518553  0.40402205     0.18100
H507        H  0.64808341  0.16341012  0.39109585     0.18100
F508        F  0.62278745  0.18358701  0.44020247    -0.19700
C509        C  0.07099844  0.05530744  0.19167484    -0.21100
C510        C  0.03941448  0.05425527  0.19727159    -0.09100
C511        C  0.02664210  0.07121885  0.22065205     0.29700
C512        C  0.04550627  0.08684696  0.23981172    -0.21100
C513        C  0.07727069  0.08610492  0.23571681    -0.09100
C514        C  0.08989982  0.07126084  0.21077192     0.29700
F515        F  0.12058922  0.06981877  0.20672301    -0.19700
H516        H  0.08108476  0.04287866  0.17326369     0.18100
H517        H  0.03553007  0.09771470  0.25935702     0.18100
F518        F  0.99626097  0.07057861  0.22665135    -0.19700
C519        C  0.05206231  0.44016072  0.12304304    -0.21100
C520        C  0.02191690  0.44240931  0.13446141    -0.09100
C521        C  0.01489628  0.42646741  0.16085438     0.29700
C522        C  0.03585495  0.40745904  0.17340381    -0.21100
C523        C  0.06597713  0.40651259  0.16320981    -0.09100
C524        C  0.07418558  0.42316314  0.13796536     0.29700
F525        F  0.10377195  0.42432657  0.12892925    -0.19700
H526        H  0.05946165  0.45364582  0.10457555     0.18100
H527        H  0.02938084  0.39616760  0.19378194     0.18100
F528        F  0.98948190  0.43220225  0.17754622    -0.19700
C529        C  0.95731445  0.07574913  0.12138048    -0.21100
C530        C  0.94529918  0.04800926  0.11638784    -0.09100
C531        C  0.91345473  0.04552432  0.11927150     0.29700
C532        C  0.89769110  0.06426515  0.13902576    -0.21100
C533        C  0.91287143  0.08768093  0.15225540    -0.09100
C534        C  0.94138143  0.09544875  0.14016468     0.29700
F535        F  0.95605759  0.11910631  0.15070077    -0.19700
H536        H  0.98109993  0.07981791  0.11639684     0.18100
H537        H  0.87445287  0.05943364  0.14553866     0.18100
F538        F  0.89794473  0.02471982  0.10431947    -0.19700
C539        C  0.91132568  0.43326948  0.22248412    -0.21100
C540        C  0.88992686  0.41087313  0.22369127    -0.09100
C541        C  0.87854606  0.39949182  0.19633000     0.29700
C542        C  0.88893568  0.41032040  0.16845266    -0.21100
C543        C  0.91009764  0.43281929  0.16788750    -0.09100
C544        C  0.92097491  0.44428882  0.19510444     0.29700
F545        F  0.94137136  0.46615182  0.19508196    -0.19700
H546        H  0.92071041  0.44266702  0.24289036     0.18100
H547        H  0.88048737  0.40137497  0.14743521     0.18100
F548        F  0.85723304  0.37846110  0.19647551    -0.19700
C549        C  0.56823010  0.20499111  0.14214146    -0.21100
C550        C  0.56255327  0.23372778  0.15145169    -0.09100
C551        C  0.57623248  0.24327925  0.17874708     0.29700
C552        C  0.59348689  0.22475445  0.19634603    -0.21100
C553        C  0.59596984  0.19533981  0.18921882    -0.09100
C554        C  0.58458080  0.18579751  0.16100819     0.29700
F555        F  0.58739412  0.15766749  0.15258939    -0.19700
H556        H  0.55751993  0.19659325  0.12195858     0.18100
H557        H  0.60192218  0.23313790  0.21764441     0.18100
F558        F  0.56884806  0.26921382  0.19150760    -0.19700
C559        C  0.45604894  0.33447485  0.12707277    -0.21100
C560        C  0.45589294  0.30416675  0.12786899    -0.09100
C561        C  0.42722740  0.29113094  0.13148230     0.29700
C562        C  0.40398410  0.30642142  0.14670468    -0.21100
C563        C  0.40855059  0.33533821  0.15527935    -0.09100
C564        C  0.43299425  0.35016968  0.14201261     0.29700
F565        F  0.43703377  0.37878320  0.14730629    -0.19700
H566        H  0.47456737  0.34598730  0.11690870     0.18100
H567        H  0.38426085  0.29484588  0.15487415     0.18100
F568        F  0.42358692  0.26256486  0.12557412    -0.19700
C569        C  0.56224583  0.36818989  0.17894708    -0.21100
C570        C  0.57621009  0.34978854  0.15735801    -0.09100
C571        C  0.60836992  0.34766847  0.15692688     0.29700
C572        C  0.62513414  0.35818553  0.18139713    -0.21100
C573        C  0.61006610  0.37201222  0.20553964    -0.09100
C574        C  0.57911558  0.37925886  0.20287639     0.29700
F575        F  0.56427932  0.39319295  0.22583296    -0.19700
H576        H  0.53777908  0.37111717  0.17987681     0.18100
H577        H  0.64914008  0.35268233  0.18306538     0.18100
F578        F  0.62315040  0.33247267  0.13480957    -0.19700
C579        C  0.46767301  0.18670234  0.22150609    -0.21100
C580        C  0.45332441  0.20777660  0.20346506    -0.09100
C581        C  0.42119238  0.20696956  0.20073116     0.29700
C582        C  0.40415394  0.18731606  0.21770737    -0.21100
C583        C  0.41862971  0.16795793  0.23732642    -0.09100
C584        C  0.45057798  0.16698865  0.23812744     0.29700
F585        F  0.46514406  0.14856035  0.25710365    -0.19700
H586        H  0.49216420  0.18639788  0.22421451     0.18100
H587        H  0.37948511  0.18878839  0.21733267     0.18100
F588        F  0.40589360  0.22540507  0.18240625    -0.19700
C589        C  0.48763766  0.28277060  0.62719528     0.30200
C590        C  0.53771166  0.24705809  0.63207105     0.30200
C591        C  0.48789601  0.26245680  0.65491073    -0.06000
C592        C  0.49304386  0.26167594  0.60056082    -0.06800
C593        C  0.51901922  0.29780518  0.62937006    -0.06600
C594        C  0.51302820  0.24425225  0.65669862    -0.06000
C595        C  0.51921457  0.24315149  0.60249201    -0.06800
C596        C  0.54428561  0.27960300  0.63070334    -0.06600
C597        C  0.50468346  0.22090740  0.67425369    -0.32000
N598        N  0.47566490  0.22456255  0.68421731     0.14500
C599        C  0.46536327  0.25003820  0.67292838    -0.32000
H600        H  0.44269128  0.25846610  0.67705128     0.16400
C601        C  0.52899501  0.23897046  0.57265997    -0.31000
N602        N  0.50950882  0.25299687  0.55390062     0.13200
C603        C  0.48800740  0.26685521  0.57046739    -0.31000
C604        C  0.56966113  0.29661291  0.63407850    -0.31300
N605        N  0.56055992  0.32439035  0.63866400     0.13700
H606        H  0.59267285  0.28862839  0.63718624     0.16300
C607        C  0.52981317  0.32527099  0.63493586    -0.31300
H608        H  0.51614919  0.34410478  0.63990104     0.16300
H609        H  0.47118357  0.28156855  0.56123551     0.16300
H610        H  0.51805938  0.20144630  0.67754148     0.16400
H611        H  0.54967313  0.22795707  0.56534400     0.16300
C612        C  0.98913974  0.02769117  0.63165887     0.30200
C613        C  0.00877729  0.46793783  0.62572214     0.30200
C614        C  0.95365454  0.48007193  0.62074274    -0.06000
C615        C  0.98873663  0.00416104  0.60618058    -0.06800
C616        C  0.02118721  0.04109806  0.62774675    -0.06600
C617        C  0.97570456  0.45805042  0.62006914    -0.06000
C618        C  0.01349953  0.48891753  0.59939972    -0.06800
C619        C  0.04477985  0.02103074  0.62484381    -0.06600
C620        C  0.96132059  0.43242695  0.62629739    -0.32000
N621        N  0.93260715  0.43827555  0.63610377     0.14500
C622        C  0.92857303  0.46730757  0.63414474    -0.32000
H623        H  0.91113945  0.47895032  0.64672189     0.16400
C624        C  0.02171201  0.48266566  0.56982743    -0.31000
N625        N  0.99869635  0.98872592  0.55925806     0.13200
C626        C  0.98106599  0.00699673  0.57595595    -0.31000
C627        C  0.07179732  0.03546222  0.62565938    -0.31300
N628        N  0.06660779  0.06260899  0.63627577     0.13700
H629        H  0.09377728  0.02501481  0.62335619     0.16300
C630        C  0.03566423  0.06572552  0.63846867    -0.31300
H631        H  0.02451599  0.08237894  0.65177392     0.16300
H632        H  0.96628639  0.02346859  0.56649953     0.16300
H633        H  0.97248800  0.41159390  0.62776269     0.16400
H634        H  0.03399631  0.46358114  0.56206892     0.16300
C635        C  0.48074420  0.22069787  0.95750451     0.30200
C636        C  0.52948873  0.25707949  0.94948249     0.30200
C637        C  0.47833056  0.24229754  0.93122519    -0.06000
C638        C  0.48742113  0.24147383  0.47765180    -0.06800
C639        C  0.51208343  0.20599276  0.95124456    -0.06600
C640        C  0.50262832  0.26084819  0.92783694    -0.06000
C641        C  0.51176369  0.26138136  0.47294891    -0.06800
C642        C  0.53664151  0.22450459  0.94852473    -0.06600
C643        C  0.49255710  0.28421864  0.91112301    -0.32000
N644        N  0.46330243  0.27976180  0.90302857     0.14500
C645        C  0.45454495  0.25426565  0.91498588    -0.32000
H646        H  0.43171078  0.24608340  0.91320710     0.16400
C647        C  0.52428106  0.26571149  0.50156081    -0.31000
N648        N  0.50807247  0.25051204  0.52222985     0.13200
C649        C  0.48606213  0.23577552  0.50804110    -0.31000
C650        C  0.56215767  0.20797118  0.94259326    -0.31300
N651        N  0.55381742  0.18010808  0.93845298     0.13700
H652        H  0.58453203  0.21648653  0.93780407     0.16300
C653        C  0.52329641  0.17877329  0.94380972    -0.31300
H654        H  0.50998360  0.15987535  0.93937032     0.16300
H655        H  0.47148352  0.22015285  0.51892639     0.16300
H656        H  0.50527319  0.30355392  0.90624488     0.16400
H657        H  0.54468377  0.27768304  0.50664073     0.16300
C658        C  0.96206149  0.48100354  0.94418678     0.30200
C659        C  0.00913231  0.02195054  0.93858002     0.30200
C660        C  0.95429814  0.01207416  0.94552636    -0.06000
C661        C  0.98513451  0.48719447  0.47531184    -0.06800
C662        C  0.98021232  0.48307549  0.91441411    -0.06600
C663        C  0.97645550  0.03283055  0.94229319    -0.06000
C664        C  0.01007090  0.99834120  0.47960961    -0.06800
C665        C  0.00246249  0.50423097  0.91381914    -0.06600
C666        C  0.96302869  0.05845988  0.93462564    -0.32000
N667        N  0.93365927  0.05360039  0.92741346     0.14500
C668        C  0.92842699  0.02511504  0.93294744    -0.32000
H669        H  0.90893105  0.01389979  0.92412767     0.16400
C670        C  0.01619800  0.00510848  0.50952872    -0.31000
N671        N  0.99991449  0.98743692  0.52759486     0.13200
C672        C  0.98493208  0.48061611  0.50571234    -0.31000
C673        C  0.02583668  0.49373618  0.89545016    -0.31300
N674        N  0.01837506  0.46745168  0.88453186     0.13700
H675        H  0.04801341  0.50342989  0.89296930     0.16300
C676        C  0.99035667  0.46130114  0.89513454    -0.31300
H677        H  0.97997123  0.44058892  0.89173415     0.16300
H678        H  0.96856866  0.46716044  0.51723659     0.16300
H679        H  0.97526284  0.07817709  0.93050104     0.16400
H680        H  0.02890516  0.02348927  0.51760664     0.16300
Fe681      Fe  0.59912035  0.34091151  0.80393164     1.65800
Fe682      Fe  0.61773176  0.39708499  0.85033935     1.73200
Fe683      Fe  0.66406249  0.37784430  0.78906198     1.54400
O684        O  0.67447209  0.33315996  0.78583819    -0.81500
O685        O  0.63109504  0.43477005  0.82902496    -0.79800
O686        O  0.63319299  0.31064226  0.80300974    -0.84000
O687        O  0.60252230  0.34828546  0.75849503    -0.78800
O688        O  0.69082167  0.37903160  0.82668325    -0.80600
O689        O  0.57255056  0.40592303  0.83365003    -0.83300
C690        C  0.61784268  0.36358695  0.74043868     0.97400
C691        C  0.66058579  0.31032497  0.79390906     1.04900
O692        O  0.62705967  0.37211168  0.81454167    -1.12300
O693        O  0.60270482  0.36389689  0.87934250    -0.74800
O694        O  0.59126307  0.32866044  0.84762637    -0.78200
O695        O  0.64122528  0.37737467  0.74835689    -0.78900
C696        C  0.59348854  0.33840637  0.87433316     0.96300
O697        O  0.56238383  0.36826040  0.80345356    -0.76900
O698        O  0.66254891  0.39010007  0.86783693    -0.82100
C699        C  0.64630659  0.44176298  0.80568665     0.99000
C700        C  0.68801492  0.38307446  0.85500093     1.04900
O701        O  0.65912271  0.42287702  0.78864126    -0.77700
C702        C  0.55526119  0.39258567  0.81476996     1.03200
Fe703      Fe  0.60008406  0.16475725  0.77459963     1.65800
Fe704      Fe  0.61454078  0.10627291  0.73305984     1.73200
Fe705      Fe  0.66276134  0.12528591  0.79026734     1.54400
O706        O  0.67734454  0.16826789  0.78624088    -0.81500
O707        O  0.63189453  0.06916429  0.75274660    -0.79800
O708        O  0.63327627  0.19195237  0.78992057    -0.84000
O709        O  0.59308345  0.14945606  0.81756524    -0.78800
O710        O  0.68806023  0.11638999  0.75181806    -0.80600
O711        O  0.57288283  0.09794718  0.75706720    -0.83300
C712        C  0.61207386  0.14036085  0.83710602     0.97400
C713        C  0.66204402  0.19163226  0.78900122     1.04900
O714        O  0.62658157  0.13209445  0.76596479    -1.12300
O715        O  0.59579483  0.14002128  0.70637101    -0.74800
O716        O  0.60760230  0.17977984  0.73188006    -0.78200
O717        O  0.63976432  0.13400025  0.83082201    -0.78900
C718        C  0.59962955  0.16734422  0.70747010     0.96300
O719        O  0.56211563  0.14377862  0.75933563    -0.76900
O720        O  0.65683897  0.11370607  0.71151572    -0.82100
C721        C  0.64361978  0.06246588  0.77798300     0.99000
C722        C  0.68339534  0.11605567  0.72335483     1.04900
O723        O  0.65292668  0.08156568  0.79654109    -0.77700
C724        C  0.55561315  0.11838393  0.76679117     1.03200
Fe725      Fe  0.40328228  0.33911110  0.75049303     1.65800
Fe726      Fe  0.38077828  0.40158534  0.72163502     1.73200
Fe727      Fe  0.34666591  0.37721412  0.78558260     1.54400
O728        O  0.33421535  0.33357644  0.78521908    -0.81500
O729        O  0.36017294  0.43525815  0.74445125    -0.79800
O730        O  0.36905136  0.31003068  0.75716716    -0.84000
O731        O  0.41162537  0.33966612  0.79558582    -0.78800
O732        O  0.31401743  0.38528051  0.75234345    -0.80600
O733        O  0.42319087  0.41165689  0.74171739    -0.83300
C734        C  0.39971670  0.34962194  0.81971700     0.97400
C735        C  0.34521070  0.31042533  0.77353981     1.04900
O736        O  0.37659369  0.37241258  0.75306384    -1.12300
O737        O  0.40301805  0.37616337  0.68874202    -0.74800
O738        O  0.39581465  0.33242884  0.70524050    -0.78200
O739        O  0.37725012  0.36733251  0.82025510    -0.78900
C740        C  0.40330147  0.34918760  0.68432613     0.96300
O741        O  0.44090229  0.36619547  0.74499116    -0.76900
O742        O  0.33711135  0.38960731  0.70642526    -0.82100
C743        C  0.35612150  0.44134609  0.77200094     0.99000
C744        C  0.31330690  0.38577796  0.72327485     1.04900
O745        O  0.35543429  0.42153773  0.79184782    -0.77700
C746        C  0.44359335  0.39328401  0.75021207     1.03200
Fe747      Fe  0.40240913  0.16736373  0.83905355     1.65800
Fe748      Fe  0.38157550  0.10296965  0.86254356     1.73200
Fe749      Fe  0.35171513  0.12931256  0.79753238     1.54400
O750        O  0.33654873  0.17220030  0.79815848    -0.81500
O751        O  0.36530883  0.06964989  0.83685090    -0.79800
O752        O  0.36925733  0.19646152  0.82682543    -0.84000
O753        O  0.41873855  0.16627500  0.79514729    -0.78800
O754        O  0.31663854  0.11947285  0.82818516    -0.80600
O755        O  0.42614469  0.09539230  0.84505271    -0.83300
C756        C  0.40943409  0.15717868  0.76955253     0.97400
C757        C  0.34629893  0.19558514  0.80963466     1.04900
O758        O  0.37807046  0.13349979  0.83241246    -1.12300
O759        O  0.39912280  0.12853632  0.89750226    -0.74800
O760        O  0.38696899  0.17219108  0.88305845    -0.78200
O761        O  0.38560422  0.14167425  0.76642888    -0.78900
C762        C  0.39642362  0.15526265  0.90326700     0.96300
O763        O  0.43872138  0.14111584  0.85208973    -0.76900
O764        O  0.33627798  0.11272758  0.87519187    -0.82100
C765        C  0.36324997  0.06467024  0.80889785     0.99000
C766        C  0.31379746  0.11771388  0.85716794     1.04900
O767        O  0.36306368  0.08535118  0.79002388    -0.77700
C768        C  0.44548656  0.11584585  0.84234739     1.03200
Fe769      Fe  0.10176745  0.41004719  0.74291372     1.65800
Fe770      Fe  0.12157028  0.34517058  0.71910037     1.73200
Fe771      Fe  0.15287168  0.37131240  0.78323530     1.54400
O772        O  0.16764515  0.41410833  0.78219404    -0.81500
O773        O  0.14128071  0.31246088  0.74347791    -0.79800
O774        O  0.13707186  0.43777519  0.75060078    -0.84000
O775        O  0.08873803  0.41144262  0.78707602    -0.78800
O776        O  0.18716614  0.36100607  0.75162559    -0.80600
O777        O  0.07784111  0.33746795  0.73829042    -0.83300
C778        C  0.09615309  0.39982892  0.81189283     0.97400
C779        C  0.15977872  0.43689785  0.76816424     1.04900
O780        O  0.12556463  0.37563224  0.74917643    -1.12300
O781        O  0.09958069  0.36949709  0.68577191    -0.74800
O782        O  0.11378993  0.41269030  0.69787760    -0.78200
O783        O  0.11916290  0.38297312  0.81488563    -0.78900
C784        C  0.10045978  0.39610807  0.67991825     0.96300
O785        O  0.06351917  0.38409416  0.73615384    -0.76900
O786        O  0.16592366  0.35636633  0.70492018    -0.82100
C787        C  0.14395695  0.30741177  0.77130175     0.99000
C788        C  0.18896146  0.36070523  0.72250318     1.04900
O789        O  0.14230303  0.32778015  0.79062951    -0.77700
C790        C  0.05758877  0.35759686  0.74207441     1.03200
Fe791      Fe  0.10896089  0.08183948  0.79524499     1.65800
Fe792      Fe  0.11917437  0.13956917  0.84029652     1.73200
Fe793      Fe  0.17005613  0.12148004  0.78401328     1.54400
O794        O  0.17951016  0.07600848  0.77916027    -0.81500
O795        O  0.12724494  0.17686778  0.81730195    -0.79800
O796        O  0.14388277  0.05510446  0.80746888    -0.84000
O797        O  0.12381846  0.08157614  0.75065934    -0.78800
O798        O  0.19471443  0.12058690  0.82269597    -0.80600
O799        O  0.07322346  0.14050014  0.82194769    -0.83300
C800        C  0.13167912  0.10225204  0.73378101     0.97400
C801        C  0.16904205  0.05394870  0.79324379     1.04900
O802        O  0.13278364  0.11482569  0.80691579    -1.12300
O803        O  0.10933880  0.10626656  0.86955998    -0.74800
O804        O  0.08892950  0.07624627  0.83669999    -0.78200
O805        O  0.14645891  0.12344713  0.74385584    -0.78900
C806        C  0.09186814  0.08567765  0.86343372     0.96300
O807        O  0.07386468  0.10847802  0.78344487    -0.76900
O808        O  0.16418220  0.13973455  0.85898252    -0.82100
C809        C  0.14798096  0.18493519  0.79934328     0.99000
C810        C  0.19020715  0.13007555  0.84937168     1.04900
O811        O  0.16626957  0.16698104  0.78642152    -0.77700
C812        C  0.06085519  0.12885011  0.79825872     1.03200
Fe813      Fe  0.89109132  0.41385056  0.80475984     1.65800
Fe814      Fe  0.87897036  0.35036381  0.83961678     1.73200
Fe815      Fe  0.83024404  0.37463292  0.78396703     1.54400
O816        O  0.82077948  0.41919575  0.77959813    -0.81500
O817        O  0.86450760  0.31514888  0.81610593    -0.79800
O818        O  0.85438451  0.44114698  0.80854679    -0.84000
O819        O  0.88792463  0.41066451  0.75755808    -0.78800
O820        O  0.80462076  0.37358927  0.82276441    -0.80600
O821        O  0.92293493  0.34505120  0.81758954    -0.83300
C822        C  0.87574462  0.39389723  0.73806945     0.97400
C823        C  0.83082886  0.44183095  0.79239649     1.04900
O824        O  0.86682744  0.37922666  0.80942440    -1.12300
O825        O  0.89632428  0.37848269  0.87170021    -0.74800
O826        O  0.89690580  0.42157162  0.85056309    -0.78200
O827        O  0.85537705  0.37569925  0.74467363    -0.78900
C828        C  0.90008273  0.40541663  0.87335025     0.96300
O829        O  0.93050211  0.38995727  0.80116920    -0.76900
O830        O  0.83454555  0.35568236  0.86008981    -0.82100
C831        C  0.84534156  0.30967225  0.79583589     0.99000
C832        C  0.80883125  0.36569171  0.85005585     1.04900
O833        O  0.83131745  0.32949810  0.78177076    -0.77700
C834        C  0.93905046  0.36375936  0.80317615     1.03200
Fe835      Fe  0.89026190  0.08371950  0.76231203     1.65800
Fe836      Fe  0.87382507  0.14508707  0.72388788     1.73200
Fe837      Fe  0.82914231  0.12339561  0.78403673     1.54400
O838        O  0.82106583  0.07891994  0.78906720    -0.81500
O839        O  0.86107250  0.18146186  0.74743254    -0.79800
O840        O  0.85372688  0.05689863  0.75783946    -0.84000
O841        O  0.88532791  0.08543949  0.80901642    -0.78800
O842        O  0.80140646  0.12409936  0.74705976    -0.80600
O843        O  0.91937118  0.14968457  0.74048140    -0.83300
C844        C  0.87429470  0.10276407  0.82876309     0.97400
C845        C  0.83111800  0.05624731  0.77574263     1.04900
O846        O  0.86464020  0.11788265  0.75668350    -1.12300
O847        O  0.88905007  0.11550240  0.69203710    -0.74800
O848        O  0.90023733  0.07568572  0.71714705    -0.78200
O849        O  0.85535896  0.12263500  0.82244748    -0.78900
C850        C  0.89975487  0.09016179  0.69296573     0.96300
O851        O  0.92833659  0.10892225  0.76673693    -0.76900
O852        O  0.82860104  0.14045048  0.70714323    -0.82100
C853        C  0.84356380  0.18769963  0.76932519     0.99000
C854        C  0.80376227  0.13129247  0.71936529     1.04900
O855        O  0.83059114  0.16847508  0.78503690    -0.77700
C856        C  0.93657301  0.13347102  0.75702206     1.03200
C857        C  0.83970758  0.22866806  0.80643595    -0.21100
C858        C  0.83873582  0.21877044  0.77641755    -0.09100
C859        C  0.83577841  0.23914770  0.75290987     0.29700
C860        C  0.83598822  0.26887461  0.75930550    -0.21100
C861        C  0.83962277  0.27873777  0.78915266    -0.09100
C862        C  0.84034379  0.25832499  0.81279811     0.29700
F863        F  0.84235295  0.26707543  0.84213631    -0.19700
H864        H  0.84158783  0.21344165  0.82488374     0.18100
H865        H  0.83490890  0.28410945  0.74080739     0.18100
F866        F  0.83326821  0.23027272  0.72365682    -0.19700
C867        C  0.81587504  0.49129833  0.81004043    -0.21100
C868        C  0.81740175  0.47075646  0.78641720    -0.09100
C869        C  0.81475981  0.48037950  0.75640125     0.29700
C870        C  0.81805000  0.00597208  0.76116398    -0.21100
C871        C  0.81940959  0.02744086  0.78374359    -0.09100
C872        C  0.81895737  0.01906033  0.81433466     0.29700
F873        F  0.81970695  0.03919971  0.83679165    -0.19700
H874        H  0.81790142  0.48437679  0.83335745     0.18100
H875        H  0.81833808  0.01196009  0.73746879     0.18100
F876        F  0.81630231  0.46126672  0.73297624    -0.19700
C877        C  0.97587858  0.15041685  0.79449433    -0.21100
C878        C  0.96847587  0.14154024  0.76478717    -0.09100
C879        C  0.99230683  0.13203811  0.74572836     0.29700
C880        C  0.02236636  0.13046428  0.75634752    -0.21100
C881        C  0.02978605  0.13753932  0.78665123    -0.09100
C882        C  0.00614264  0.14849122  0.80539979     0.29700
F883        F  0.01163198  0.15497609  0.83487290    -0.19700
H884        H  0.95783233  0.15712742  0.80990754     0.18100
H885        H  0.03971261  0.12187311  0.74108814     0.18100
F886        F  0.98610703  0.12155172  0.71765078    -0.19700
C887        C  0.00296824  0.37180485  0.74492263    -0.21100
C888        C  0.02566375  0.35211414  0.75368238    -0.09100
C889        C  0.01831792  0.33279239  0.77742829     0.29700
C890        C  0.98964583  0.33491100  0.79299375    -0.21100
C891        C  0.96813434  0.35669543  0.78553066    -0.09100
C892        C  0.97539226  0.37450455  0.76053497     0.29700
F893        F  0.95631795  0.39604345  0.75156893    -0.19700
H894        H  0.00731799  0.38696176  0.72686468     0.18100
H895        H  0.98511425  0.32071799  0.81185612     0.18100
F896        F  0.03949648  0.31342676  0.78707099    -0.19700
C897        C  0.13818227  0.26665765  0.80844136    -0.21100
C898        C  0.14857370  0.27667382  0.78033774    -0.09100
C899        C  0.16145092  0.25642826  0.75963441     0.29700
C900        C  0.16233554  0.22686021  0.76632376    -0.21100
C901        C  0.15021938  0.21661361  0.79363134    -0.09100
C902        C  0.13887275  0.23702852  0.81505823     0.29700
F903        F  0.12817774  0.22839064  0.84244843    -0.19700
H904        H  0.12844097  0.28163557  0.82488645     0.18100
H905        H  0.17155491  0.21186463  0.74961077     0.18100
F906        F  0.17292875  0.26514473  0.73258797    -0.19700
C907        C  0.17933815  0.47281940  0.80494146    -0.21100
C908        C  0.17508928  0.46458894  0.77462060    -0.09100
C909        C  0.17742976  0.48574589  0.75195284     0.29700
C910        C  0.18611942  0.01159342  0.76223930    -0.21100
C911        C  0.18355450  0.02485658  0.79084222    -0.09100
C912        C  0.18494513  0.00724861  0.81677806     0.29700
F913        F  0.18293354  0.01935937  0.84482269    -0.19700
H914        H  0.17790136  0.45692118  0.82278959     0.18100
H915        H  0.18466203  0.02454490  0.74192929     0.18100
F916        F  0.17488191  0.47830799  0.72227310    -0.19700
C917        C  0.26936466  0.15062760  0.86406223    -0.21100
C918        C  0.28252861  0.12327328  0.86914673    -0.09100
C919        C  0.26335112  0.10048902  0.87741561     0.29700
C920        C  0.23143449  0.10423365  0.87659751    -0.21100
C921        C  0.21824858  0.13078574  0.86783818    -0.09100
C922        C  0.23759702  0.15446326  0.86366945     0.29700
F923        F  0.22593611  0.18009252  0.85410737    -0.19700
H924        H  0.28367336  0.16842824  0.85724687     0.18100
H925        H  0.21714545  0.08543498  0.87906478     0.18100
F926        F  0.27526508  0.07380073  0.88244790    -0.19700
C927        C  0.26066601  0.40290459  0.71235839    -0.21100
C928        C  0.28273825  0.38082348  0.71003707    -0.09100
C929        C  0.27282042  0.35228429  0.70523706     0.29700
C930        C  0.24148200  0.34582559  0.70534609    -0.21100
C931        C  0.21953018  0.36772214  0.71007750    -0.09100
C932        C  0.22944614  0.39649560  0.71232681     0.29700
F933        F  0.20900576  0.41807878  0.71812381    -0.19700
H934        H  0.26761083  0.42483468  0.71720372     0.18100
H935        H  0.23453834  0.32345095  0.70463432     0.18100
F936        F  0.29344058  0.33022865  0.70415260    -0.19700
C937        C  0.32965187  0.24604209  0.82165846    -0.21100
C938        C  0.33322750  0.22366793  0.80022937    -0.09100
C939        C  0.33284656  0.23055505  0.76923663     0.29700
C940        C  0.33293261  0.25949065  0.76013994    -0.21100
C941        C  0.33254374  0.28196476  0.78172555    -0.09100
C942        C  0.32876699  0.27497582  0.81251035     0.29700
F943        F  0.32867479  0.29602123  0.83407004    -0.19700
H944        H  0.33026996  0.24123117  0.84564501     0.18100
H945        H  0.33615233  0.26432671  0.73634712     0.18100
F946        F  0.33684155  0.20955610  0.74792176    -0.19700
C947        C  0.35911679  0.01180312  0.82168610    -0.21100
C948        C  0.36139826  0.03351769  0.79934271    -0.09100
C949        C  0.36273391  0.02469679  0.76883688     0.29700
C950        C  0.34686786  0.49324069  0.75715083    -0.21100
C951        C  0.35331271  0.47275851  0.78001060    -0.09100
C952        C  0.35976956  0.48308320  0.80917643     0.29700
F953        F  0.36573976  0.46450293  0.83210512    -0.19700
H954        H  0.35782765  0.01758998  0.84547711     0.18100
H955        H  0.34123210  0.48606735  0.73448044     0.18100
F956        F  0.36482770  0.04445180  0.74635575    -0.19700
C957        C  0.51192591  0.08890978  0.79073016    -0.21100
C958        C  0.52879585  0.11461715  0.78796597    -0.09100
C959        C  0.51969512  0.13839156  0.80626930     0.29700
C960        C  0.49460701  0.13688909  0.82560470    -0.21100
C961        C  0.47605298  0.11235812  0.82679060    -0.09100
C962        C  0.48549295  0.08786038  0.80962516     0.29700
F963        F  0.46883346  0.06334999  0.81029061    -0.19700
H964        H  0.51842379  0.07008412  0.77742652     0.18100
H965        H  0.48879282  0.15618052  0.83849099     0.18100
F966        F  0.53441722  0.16401302  0.80508393    -0.19700
C967        C  0.75491565  0.15249881  0.70253434    -0.21100
C968        C  0.77499651  0.12869165  0.70226584    -0.09100
C969        C  0.76268114  0.10087933  0.69874830     0.29700
C970        C  0.73100700  0.09679334  0.70009126    -0.21100
C971        C  0.71113934  0.12036187  0.70479692    -0.09100
C972        C  0.72324263  0.14841995  0.70392600     0.29700
F973        F  0.70486446  0.17162218  0.70972479    -0.19700
H974        H  0.76370895  0.17401152  0.70621210     0.18100
H975        H  0.72240071  0.07499948  0.70159737     0.18100
F976        F  0.78137396  0.07732771  0.69914565    -0.19700
C977        C  0.52361027  0.41647972  0.77469594    -0.21100
C978        C  0.52531702  0.40432982  0.80397728    -0.09100
C979        C  0.49832264  0.39336796  0.81654060     0.29700
C980        C  0.47133585  0.39240294  0.79947825    -0.21100
C981        C  0.47026655  0.40211931  0.76929736    -0.09100
C982        C  0.49649359  0.41530033  0.75742351     0.29700
F983        F  0.49681923  0.42460350  0.72833165    -0.19700
H984        H  0.54415892  0.42447104  0.76406218     0.18100
H985        H  0.45161552  0.38216467  0.80926780     0.18100
F986        F  0.49889170  0.38068055  0.84417741    -0.19700
C987        C  0.72907406  0.35010959  0.87187372    -0.21100
C988        C  0.71680983  0.37837032  0.87201308    -0.09100
C989        C  0.73712597  0.40147259  0.87531968     0.29700
C990        C  0.76886441  0.39651789  0.87408833    -0.21100
C991        C  0.78098967  0.36851582  0.86931936    -0.09100
C992        C  0.76077332  0.34517401  0.87036206     0.29700
F993        F  0.77124552  0.31798093  0.86462933    -0.19700
H994        H  0.71407374  0.33193965  0.86844849     0.18100
H995        H  0.78376894  0.41498056  0.87255363     0.18100
F996        F  0.72643964  0.42908126  0.87476527    -0.19700
C997        C  0.67611595  0.26526077  0.81958521    -0.21100
C998        C  0.67543281  0.28143995  0.79274458    -0.09100
C999        C  0.67900240  0.26681906  0.76488548     0.29700
C1000       C  0.67959614  0.23642321  0.76395745    -0.21100
C1001       C  0.67666783  0.22026624  0.79072647    -0.09100
C1002       C  0.67664547  0.23499660  0.81864927     0.29700
F1003       F  0.67292035  0.22020676  0.84484982    -0.16500
H1004       H  0.67276162  0.27601800  0.84125210     0.18100
H1005       H  0.67869816  0.22559763  0.74214548     0.18100
F1006       F  0.67754340  0.28164820  0.73848309    -0.19700
C1007       C  0.65546153  0.48173860  0.76812941    -0.21100
C1008       C  0.64871505  0.47320568  0.79796891    -0.09100
C1009       C  0.64352674  0.49510082  0.81996813     0.29700
C1010       C  0.64845427  0.01057210  0.76161391    -0.21100
C1011       C  0.64636089  0.03106741  0.78531383    -0.09100
C1012       C  0.64578179  0.02097629  0.81534788     0.29700
F1013       F  0.64345613  0.03981200  0.83896009    -0.19700
H1014       H  0.65956818  0.46561590  0.75065091     0.18100
H1015       H  0.64898253  0.01758481  0.73824652     0.18100
F1016       F  0.63714970  0.48826762  0.84918255    -0.19700
C1017       C  0.05883136  0.05193174  0.93510845    -0.21100
C1018       C  0.02993198  0.04423850  0.92404409    -0.09100
C1019       C  0.02157514  0.05351112  0.89465223     0.29700
C1020       C  0.04173757  0.06810065  0.87657149    -0.21100
C1021       C  0.07114104  0.07390936  0.88644241    -0.09100
C1022       C  0.07936233  0.06710720  0.91639953     0.29700
F1023       F  0.10759646  0.07338428  0.92675833    -0.19700
H1024       H  0.06629904  0.04478125  0.95712243     0.18100
H1025       H  0.03461005  0.07370043  0.85383519     0.18100
F1026       F  0.99493081  0.04541300  0.88166102    -0.19700
C1027       C  0.08896548  0.42657656  0.85983550    -0.21100
C1028       C  0.07686800  0.40837185  0.83763320    -0.09100
C1029       C  0.04509933  0.40722879  0.83395328     0.29700
C1030       C  0.02607163  0.42637078  0.84974572    -0.21100
C1031       C  0.03830877  0.44667282  0.86991602    -0.09100
C1032       C  0.06983611  0.44550281  0.87612380     0.29700
F1033       F  0.08234797  0.46290482  0.89739721    -0.19700
H1034       H  0.11343035  0.42793092  0.86272285     0.18100
H1035       H  0.00187886  0.42631772  0.84499153     0.18100
F1036       F  0.03280169  0.38956691  0.81276624    -0.19700
C1037       C  0.90852836  0.46039385  0.93587267    -0.21100
C1038       C  0.93937955  0.45558405  0.94296213    -0.09100
C1039       C  0.95065491  0.42717448  0.93807202     0.29700
C1040       C  0.93594950  0.40892832  0.91725060    -0.21100
C1041       C  0.90954400  0.41862480  0.90242150    -0.09100
C1042       C  0.89444981  0.44324231  0.91388704     0.29700
F1043       F  0.86690864  0.45141101  0.90278070    -0.19700
H1044       H  0.89595701  0.47833045  0.94545917     0.18100
H1045       H  0.94720750  0.38910183  0.91002246     0.18100
F1046       F  0.97882004  0.41945663  0.94794420    -0.19700
C1047       C  0.86906384  0.08123904  0.87979388    -0.21100
C1048       C  0.88507920  0.09899240  0.85973299    -0.09100
C1049       C  0.91528329  0.10600432  0.86587376     0.29700
C1050       C  0.93046642  0.09280414  0.88966274    -0.21100
C1051       C  0.91575984  0.07222224  0.90799950    -0.09100
C1052       C  0.88417842  0.06814192  0.90409610     0.29700
F1053       F  0.86830792  0.05040904  0.92262402    -0.19700
H1054       H  0.84556517  0.07579064  0.87531650     0.18100
H1055       H  0.95449193  0.09712427  0.89158393     0.18100
F1056       F  0.93111043  0.12323593  0.84679058    -0.19700
C1057       C  0.58443963  0.28867837  0.89174102    -0.21100
C1058       C  0.58467037  0.31805803  0.89925486    -0.09100
C1059       C  0.57257096  0.32640555  0.92782844     0.29700
C1060       C  0.55818118  0.30577445  0.94680839    -0.21100
C1061       C  0.55517218  0.27665340  0.93740532    -0.09100
C1062       C  0.56880021  0.26886959  0.90916666     0.29700
F1063       F  0.56286777  0.24337504  0.89521275    -0.19700
H1064       H  0.59360012  0.28118315  0.87017599     0.18100
H1065       H  0.54686015  0.31314671  0.96735185     0.18100
F1066       F  0.57233911  0.35461304  0.93629742    -0.19700
C1067       C  0.45531089  0.17086658  0.96151965    -0.21100
C1068       C  0.45259757  0.20111931  0.96125312    -0.09100
C1069       C  0.42291027  0.21225569  0.95725171     0.29700
C1070       C  0.40191823  0.19607029  0.94048690    -0.21100
C1071       C  0.40933158  0.16762349  0.93150371    -0.09100
C1072       C  0.43429474  0.15404282  0.94567421     0.29700
F1073       F  0.44049314  0.12554149  0.94121651    -0.19700
H1074       H  0.47453333  0.16041504  0.97208354     0.18100
H1075       H  0.38141223  0.20654355  0.93224455     0.18100
F1076       F  0.41597496  0.23995383  0.96512353    -0.19700
C1077       C  0.44727823  0.32912540  0.88716479    -0.21100
C1078       C  0.44425754  0.29879391  0.88549229    -0.09100
C1079       C  0.42291369  0.28706114  0.86544952     0.29700
C1080       C  0.40583519  0.30497380  0.84697228    -0.21100
C1081       C  0.41009594  0.33492844  0.84710158    -0.09100
C1082       C  0.43035133  0.34719956  0.86785902     0.29700
F1083       F  0.43502066  0.37611987  0.86820747    -0.19700
H1084       H  0.46333313  0.33869033  0.90271322     0.18100
H1085       H  0.39108753  0.29508032  0.83033322     0.18100
F1086       F  0.42049228  0.25809346  0.86151263    -0.19700
C1087       C  0.55644045  0.14082133  0.90045698    -0.21100
C1088       C  0.57139233  0.15947914  0.92070975    -0.09100
C1089       C  0.60331636  0.16226237  0.91788075     0.29700
C1090       C  0.61812718  0.15270551  0.89147185    -0.21100
C1091       C  0.60140189  0.13918211  0.86860176    -0.09100
C1092       C  0.57150863  0.13051255  0.87470416     0.29700
F1093       F  0.55605917  0.11435264  0.85433247    -0.19700
H1094       H  0.53233670  0.13658287  0.90235326     0.18100
H1095       H  0.64171474  0.15848598  0.88765218     0.18100
F1096       F  0.61956979  0.17670504  0.93907304    -0.19700
C1097       C  0.11741025  0.06660846  0.66052850    -0.21100
C1098       C  0.08893798  0.07923362  0.65306584    -0.09100
C1099       C  0.08121317  0.10601961  0.66687133     0.29700
C1100       C  0.09808020  0.11616869  0.69152303    -0.21100
C1101       C  0.12322797  0.10031444  0.70191790    -0.09100
C1102       C  0.13408530  0.07676641  0.68499875     0.29700
F1103       F  0.15892779  0.06156287  0.69433390    -0.19700
H1104       H  0.12588737  0.04717123  0.64970316     0.18100
H1105       H  0.08977921  0.13479738  0.70421214     0.18100
F1106       F  0.05648135  0.12154265  0.65803681    -0.19700
C1107       C  0.06279291  0.44552123  0.62240678    -0.21100
C1108       C  0.03225923  0.44419537  0.63279627    -0.09100
C1109       C  0.02571201  0.42466943  0.65642804     0.29700
C1110       C  0.04769408  0.40561890  0.66694125    -0.21100
C1111       C  0.07820211  0.40860960  0.65866873    -0.09100
C1112       C  0.08583167  0.42868857  0.63614348     0.29700
F1113       F  0.11546735  0.43301507  0.62858845    -0.19700
H1114       H  0.06945362  0.46156627  0.60601810     0.18100
H1115       H  0.04138334  0.39103821  0.68486061     0.18100
F1116       F  0.99949284  0.42666905  0.67283568    -0.19700
C1117       C  0.96288595  0.07764721  0.63690386    -0.21100
C1118       C  0.96070017  0.04756413  0.63309223    -0.09100
C1119       C  0.93165394  0.03534444  0.63777558     0.29700
C1120       C  0.90992204  0.05001831  0.65575192    -0.21100
C1121       C  0.91560109  0.07815353  0.66595750    -0.09100
C1122       C  0.94080460  0.09280479  0.65390192     0.29700
F1123       F  0.94601950  0.12074259  0.66162665    -0.19700
H1124       H  0.98236019  0.08930630  0.62875770     0.18100
H1125       H  0.88986214  0.03869848  0.66352263     0.18100
F1126       F  0.92631181  0.00755272  0.62961346    -0.19700
C1127       C  0.86972921  0.41651556  0.68800845    -0.21100
C1128       C  0.88532777  0.39695502  0.70644401    -0.09100
C1129       C  0.91323332  0.38524323  0.69655852     0.29700
C1130       C  0.92793842  0.39693745  0.67136932    -0.21100
C1131       C  0.91434790  0.41987751  0.65523767    -0.09100
C1132       C  0.88377440  0.42736914  0.66204592     0.29700
F1133       F  0.86826915  0.44676497  0.64494987    -0.19700
H1134       H  0.84757171  0.42490600  0.69484751     0.18100
H1135       H  0.95078917  0.38938851  0.66624622     0.18100
F1136       F  0.92710368  0.36387379  0.71240756    -0.19700
C1137       C  0.56407854  0.19753442  0.63480341    -0.21100
C1138       C  0.56436891  0.22739793  0.64177541    -0.09100
C1139       C  0.58133931  0.23590009  0.66762882     0.29700
C1140       C  0.59682025  0.21596144  0.68511477    -0.21100
C1141       C  0.59247824  0.18634805  0.68109947    -0.09100
C1142       C  0.57722718  0.17707394  0.65472117     0.29700
F1143       F  0.57251081  0.14854923  0.64962893    -0.19700
H1144       H  0.55018722  0.18979549  0.61632454     0.18100
H1145       H  0.60852875  0.22413250  0.70489760     0.18100
F1146       F  0.57807464  0.26235271  0.68059941    -0.19700
C1147       C  0.46045983  0.33239514  0.62353533    -0.21100
C1148       C  0.45885570  0.30211756  0.62510691    -0.09100
C1149       C  0.42993662  0.29074535  0.63143973     0.29700
C1150       C  0.40909235  0.30737285  0.64852089    -0.21100
C1151       C  0.41589044  0.33620309  0.65603697    -0.09100
C1152       C  0.43974841  0.34953817  0.64017129     0.29700
F1153       F  0.44514892  0.37819068  0.64347552    -0.19700
H1154       H  0.47845016  0.34269793  0.61105018     0.18100
H1155       H  0.38930657  0.29700415  0.65822095     0.18100
F1156       F  0.42379571  0.26263739  0.62532889    -0.19700
C1157       C  0.56104212  0.36081127  0.67945991    -0.21100
C1158       C  0.57711591  0.34457233  0.65736115    -0.09100
C1159       C  0.60928642  0.34337543  0.65915090     0.29700
C1160       C  0.62397350  0.35334526  0.68529629    -0.21100
C1161       C  0.60667363  0.36492814  0.70933408    -0.09100
C1162       C  0.57558537  0.37055439  0.70527286     0.29700
F1163       F  0.55841109  0.38187021  0.72817606    -0.19700
H1164       H  0.53652291  0.36299498  0.67922264     0.18100
H1165       H  0.64816503  0.34923236  0.68801584     0.18100
F1166       F  0.62616649  0.33026105  0.63706467    -0.19700
C1167       C  0.47431688  0.18698537  0.72365917    -0.21100
C1168       C  0.45883714  0.20404685  0.70236083    -0.09100
C1169       C  0.42693443  0.20079160  0.69973173     0.29700
C1170       C  0.41094484  0.18285072  0.71981525    -0.21100
C1171       C  0.42639412  0.16776099  0.74268408    -0.09100
C1172       C  0.45832832  0.16915269  0.74350148     0.29700
F1173       F  0.47396278  0.15423743  0.76463632    -0.19700
H1174       H  0.49880131  0.18851235  0.72604250     0.18100
H1175       H  0.38629340  0.18224592  0.71873037     0.18100
F1176       F  0.41107925  0.21510962  0.67812418    -0.19700
C1177       C  0.48295624  0.78569288  0.12478253     0.30200
C1178       C  0.53314122  0.75071305  0.13271092     0.30200
C1179       C  0.48200199  0.76611152  0.15290768    -0.06000
C1180       C  0.48970929  0.76386060  0.09898748    -0.06800
C1181       C  0.51402956  0.80118118  0.12824418    -0.06600
C1182       C  0.50714185  0.74820297  0.15596155    -0.06000
C1183       C  0.51594060  0.74570581  0.10244783    -0.06800
C1184       C  0.53945148  0.78318953  0.13067327    -0.06600
C1185       C  0.49840764  0.72492489  0.17317805    -0.32000
N1186       N  0.46910203  0.72837865  0.18198791     0.14500
C1187       C  0.45884402  0.75356733  0.17002578    -0.32000
H1188       H  0.43583601  0.76158039  0.17296515     0.16400
C1189       C  0.52594282  0.73977228  0.07296291    -0.31000
N1190       N  0.50597438  0.75183512  0.05313182     0.13200
C1191       C  0.48429756  0.76664755  0.06859676    -0.31000
C1192       C  0.56396453  0.79992324  0.13840001    -0.31300
N1193       N  0.55386800  0.82700882  0.14471454     0.13700
H1194       H  0.58638400  0.79175828  0.14422060     0.16300
C1195       C  0.52346752  0.82784239  0.13902229    -0.31300
H1196       H  0.50883406  0.84552164  0.14614933     0.16300
H1197       H  0.46731911  0.78051963  0.05829026     0.16300
H1198       H  0.51182042  0.70554527  0.17684660     0.16400
H1199       H  0.54695825  0.72887107  0.06648824     0.16300
C1200       C  0.95968450  0.51146215  0.11661089     0.30200
C1201       C  0.00820692  0.97753452  0.12443927     0.30200
C1202       C  0.95350375  0.99077725  0.11649882    -0.06000
C1203       C  0.98485737  0.50796308  0.09199707    -0.06800
C1204       C  0.97775845  0.51175460  0.14630838    -0.06600
C1205       C  0.97510400  0.96808046  0.11750385    -0.06000
C1206       C  0.01474332  0.99801608  0.09810626    -0.06800
C1207       C  0.99872043  0.48943143  0.14970135    -0.06600
C1208       C  0.96000459  0.94367353  0.12689879    -0.32000
N1209       N  0.93185372  0.95115878  0.13675761     0.14500
C1210       C  0.92798988  0.97960911  0.13091758    -0.32000
H1211       H  0.91104715  0.99249235  0.14287503     0.16400
C1212       C  0.02439552  0.99080864  0.06927285    -0.31000
N1213       N  0.00124947  0.49256712  0.04690316     0.13200
C1214       C  0.98259795  0.51180758  0.06106565    -0.31000
C1215       C  0.02175915  0.49993861  0.16794221    -0.31300
N1216       N  0.01416890  0.52693569  0.17734804     0.13700
H1217       H  0.04362797  0.48960755  0.17182241     0.16300
C1218       C  0.98726127  0.53405562  0.16476937    -0.31300
H1219       H  0.97732548  0.55533344  0.16679231     0.16300
H1220       H  0.96603273  0.52529342  0.04962804     0.16300
H1221       H  0.97075443  0.92325053  0.13235819     0.16400
H1222       H  0.03597365  0.97096123  0.06272741     0.16300
C1223       C  0.49068626  0.71344858  0.44794543     0.30200
C1224       C  0.53398176  0.75510572  0.44274295     0.30200
C1225       C  0.48814098  0.73318709  0.41995155    -0.06000
C1226       C  0.48868444  0.73745941  0.97580109    -0.06800
C1227       C  0.52452215  0.70246189  0.44718528    -0.06600
C1228       C  0.51032350  0.75416318  0.41746064    -0.06000
C1229       C  0.51408951  0.75619439  0.97196536    -0.06800
C1230       C  0.54581697  0.72417534  0.44512792    -0.06600
C1231       C  0.49762780  0.77708795  0.40179145    -0.32000
N1232       N  0.46848447  0.77108789  0.39427786     0.14500
C1233       C  0.46257012  0.74451071  0.40554346    -0.32000
H1234       H  0.44014490  0.73531015  0.40628787     0.16400
C1235       C  0.52448812  0.76171725  0.00119067    -0.31000
N1236       N  0.50581474  0.74863733  0.02142079     0.13200
C1237       C  0.48436766  0.73381140  0.00637259    -0.31000
C1238       C  0.57430161  0.71209978  0.44515845    -0.31300
N1239       N  0.57210761  0.68296306  0.44458219     0.13700
H1240       H  0.59490605  0.72432826  0.44242865     0.16300
C1241       C  0.54179814  0.67692882  0.44791084    -0.31300
H1242       H  0.53339440  0.65532452  0.45007043     0.16300
H1243       H  0.46835166  0.71931636  0.01695163     0.16300
H1244       H  0.50839118  0.79774872  0.39865893     0.16400
H1245       H  0.54514132  0.77293941  0.00716198     0.16300
C1246       C  0.96473847  0.97574760  0.45422825     0.30200
C1247       C  0.99982553  0.52959936  0.44446100     0.30200
C1248       C  0.94517466  0.51651549  0.45258523    -0.06000
C1249       C  0.99157599  0.98515852  0.97521093    -0.06800
C1250       C  0.98558779  0.97521945  0.42625394    -0.06600
C1251       C  0.96631168  0.53925150  0.45078031    -0.06000
C1252       C  0.00991094  0.50059303  0.96730409    -0.06800
C1253       C  0.00776407  0.99629764  0.42569177    -0.06600
C1254       C  0.95077964  0.56312440  0.44004032    -0.32000
N1255       N  0.92309751  0.55508433  0.43018407     0.14500
C1256       C  0.91959497  0.52705286  0.43765966    -0.32000
H1257       H  0.90311677  0.51380160  0.42615953     0.16400
C1258       C  0.01848362  0.50597872  0.99678566    -0.31000
N1259       N  0.00317133  0.48832384  0.01546904     0.13200
C1260       C  0.98927698  0.98362078  0.00622608    -0.31000
C1261       C  0.03208784  0.98516940  0.40901426    -0.31300
N1262       N  0.02465831  0.95881612  0.39823473     0.13700
H1263       H  0.05423886  0.99498332  0.40648226     0.16300
C1264       C  0.99635981  0.95273405  0.40828494    -0.31300
H1265       H  0.98566001  0.93221693  0.40440060     0.16300
H1266       H  0.97208651  0.97220090  0.01897597     0.16300
H1267       H  0.96105555  0.58339855  0.43389110     0.16400
H1268       H  0.03122767  0.52449616  0.00448416     0.16300
Fe1269     Fe  0.60163527  0.84347765  0.30814746     1.65800
Fe1270     Fe  0.61905243  0.89945598  0.35385841     1.73200
Fe1271     Fe  0.66246162  0.88226693  0.29109474     1.54400
O1272       O  0.67077545  0.83723589  0.28472898    -0.81500
O1273       O  0.62792332  0.93804503  0.33245594    -0.79800
O1274       O  0.63716844  0.81579382  0.31500482    -0.84000
O1275       O  0.61044077  0.84464492  0.26233742    -0.78800
O1276       O  0.69157233  0.88009640  0.32686831    -0.80600
O1277       O  0.57191368  0.90411086  0.33896615    -0.83300
C1278       C  0.61647129  0.86575956  0.24542792     0.97400
C1279       C  0.66151669  0.81517444  0.29944898     1.04900
O1280       O  0.62774232  0.87567492  0.31804459    -1.12300
O1281       O  0.60984117  0.86497270  0.38252657    -0.74800
O1282       O  0.58706925  0.83515141  0.35107878    -0.78200
O1283       O  0.63462854  0.88530543  0.25356116    -0.78900
C1284       C  0.59530752  0.84209273  0.37739679     0.96300
O1285       O  0.56607625  0.87097405  0.30185465    -0.76900
O1286       O  0.66565333  0.89504719  0.36839735    -0.82100
C1287       C  0.64483084  0.94568041  0.31060220     0.99000
C1288       C  0.69018696  0.88577200  0.35501698     1.04900
O1289       O  0.65940345  0.92736891  0.29423467    -0.77700
C1290       C  0.55653460  0.89268249  0.31692655     1.03200
Fe1291     Fe  0.60577570  0.67061129  0.28267159     1.65800
Fe1292     Fe  0.61654086  0.61351574  0.23561889     1.73200
Fe1293     Fe  0.66891347  0.63008012  0.29066786     1.54400
O1294       O  0.67816277  0.67455209  0.29818985    -0.81500
O1295       O  0.62584544  0.57597695  0.25834711    -0.79800
O1296       O  0.64070829  0.69795980  0.27484578    -0.84000
O1297       O  0.61736582  0.66542251  0.32819981    -0.78800
O1298       O  0.69205613  0.63305712  0.25082899    -0.80600
O1299       O  0.57115492  0.61040156  0.25502346    -0.83300
C1300       C  0.63021351  0.64571908  0.34374893     0.97400
C1301       C  0.66650703  0.69762743  0.28727071     1.04900
O1302       O  0.63031137  0.63771114  0.26947266    -1.12300
O1303       O  0.60516166  0.64758300  0.20725496    -0.74800
O1304       O  0.59063779  0.68146155  0.23990957    -0.78200
O1305       O  0.64760380  0.62672061  0.33205028    -0.78900
C1306       C  0.59425164  0.67242438  0.21289178     0.96300
O1307       O  0.56950282  0.64493373  0.29064631    -0.76900
O1308       O  0.66115358  0.61508661  0.21505189    -0.82100
C1309       C  0.64673823  0.56752756  0.27590844     0.99000
C1310       C  0.68689663  0.62545095  0.22371867     1.04900
O1311       O  0.66624112  0.58480406  0.28693192    -0.77700
C1312       C  0.55827641  0.62278998  0.27817116     1.03200
Fe1313     Fe  0.40139255  0.83600545  0.25003860     1.65800
Fe1314     Fe  0.38159403  0.90065993  0.22339382     1.73200
Fe1315     Fe  0.34588878  0.87501252  0.28580560     1.54400
O1316       O  0.33179244  0.83194697  0.28286250    -0.81500
O1317       O  0.36251086  0.93410697  0.24754442    -0.79800
O1318       O  0.36530823  0.80828206  0.25326167    -0.84000
O1319       O  0.40787169  0.83317766  0.29545441    -0.78800
O1320       O  0.31372727  0.88568462  0.25253210    -0.80600
O1321       O  0.42453640  0.90830311  0.24381183    -0.83300
C1322       C  0.39691094  0.84334143  0.31987718     0.97400
C1323       C  0.34150518  0.80895963  0.26975125     1.04900
O1324       O  0.37604360  0.87031256  0.25344847    -1.12300
O1325       O  0.40235003  0.87631961  0.18923137    -0.74800
O1326       O  0.39636004  0.83177900  0.20408446    -0.78200
O1327       O  0.37562342  0.86239173  0.32071235    -0.78900
C1328       C  0.40247427  0.84960364  0.18366905     0.96300
O1329       O  0.44018224  0.86211534  0.24831987    -0.76900
O1330       O  0.33753712  0.89107417  0.20720641    -0.82100
C1331       C  0.35841405  0.93936868  0.27523831     0.99000
C1332       C  0.31333026  0.88737070  0.22348353     1.04900
O1333       O  0.35650634  0.91886818  0.29426823    -0.77700
C1334       C  0.44397451  0.88922712  0.25292775     1.03200
Fe1335     Fe  0.39599596  0.66650729  0.33160816     1.65800
Fe1336     Fe  0.37491530  0.60185355  0.35436107     1.73200
Fe1337     Fe  0.34657572  0.62766748  0.28920132     1.54400
O1338       O  0.33236275  0.67101812  0.28932510    -0.81500
O1339       O  0.35686244  0.56921483  0.32961367    -0.79800
O1340       O  0.36019413  0.69435259  0.32367541    -0.84000
O1341       O  0.40894871  0.66849273  0.28725650    -0.78800
O1342       O  0.31110787  0.61798126  0.31936379    -0.80600
O1343       O  0.41899056  0.59387616  0.33647288    -0.83300
C1344       C  0.40232985  0.65726063  0.26192709     0.97400
C1345       C  0.33959390  0.69394573  0.30360465     1.04900
O1346       O  0.37212416  0.63237337  0.32461218    -1.12300
O1347       O  0.39498684  0.62522300  0.38887867    -0.74800
O1348       O  0.38506992  0.66983502  0.37711445    -0.78200
O1349       O  0.38092685  0.63903417  0.25850191    -0.78900
C1350       C  0.39589932  0.65171673  0.39529571     0.96300
O1351       O  0.43436169  0.64010029  0.33847063    -0.76900
O1352       O  0.32984305  0.61245222  0.36700112    -0.82100
C1353       C  0.35614393  0.56332623  0.30189867     0.99000
C1354       C  0.30759190  0.61592834  0.34824440     1.04900
O1355       O  0.35762502  0.58340674  0.28239291    -0.77700
C1356       C  0.43945009  0.61329621  0.33263061     1.03200
Fe1357     Fe  0.10096857  0.91385649  0.24437158     1.65800
Fe1358     Fe  0.12008258  0.85027689  0.21570012     1.73200
Fe1359     Fe  0.15319946  0.87279184  0.28057045     1.54400
O1360       O  0.16680850  0.91625624  0.28283386    -0.81500
O1361       O  0.13952981  0.81536743  0.23685461    -0.79800
O1362       O  0.13675001  0.94070996  0.25146622    -0.84000
O1363       O  0.09038136  0.91330792  0.28933047    -0.78800
O1364       O  0.18681911  0.86544092  0.24766727    -0.80600
O1365       O  0.07667858  0.84209450  0.23586770    -0.83300
C1366       C  0.09796828  0.89963219  0.31294356     0.97400
C1367       C  0.15893964  0.93952449  0.26954552     1.04900
O1368       O  0.12499620  0.87901487  0.24751352    -1.12300
O1369       O  0.09740054  0.87638194  0.18436272    -0.74800
O1370       O  0.11061581  0.91916627  0.19912456    -0.78200
O1371       O  0.12015212  0.88157584  0.31376191    -0.78900
C1372       C  0.09761083  0.90328965  0.18027638     0.96300
O1373       O  0.06213113  0.88872812  0.23800498    -0.76900
O1374       O  0.16474227  0.86166667  0.20123176    -0.82100
C1375       C  0.14319451  0.80876476  0.26416047     0.99000
C1376       C  0.18817503  0.86561402  0.21856153     1.04900
O1377       O  0.14381542  0.82830006  0.28458463    -0.77700
C1378       C  0.05667831  0.86190650  0.24238916     1.03200
Fe1379     Fe  0.09346156  0.58251997  0.31976435     1.65800
Fe1380     Fe  0.11284966  0.64702456  0.34364585     1.73200
Fe1381     Fe  0.14630142  0.62003257  0.27984829     1.54400
O1382       O  0.15899079  0.57609305  0.27973686    -0.81500
O1383       O  0.13139613  0.67970207  0.31942338    -0.79800
O1384       O  0.12866635  0.55411516  0.31273866    -0.84000
O1385       O  0.08234417  0.58184014  0.27527944    -0.78800
O1386       O  0.17987441  0.62779157  0.31226243    -0.80600
O1387       O  0.06973761  0.65468002  0.32373800    -0.83300
C1388       C  0.08990206  0.59370468  0.25059303     0.97400
C1389       C  0.15077282  0.55374813  0.29422528     1.04900
O1390       O  0.11794196  0.61643032  0.31381847    -1.12300
O1391       O  0.09099313  0.62311132  0.37727213    -0.74800
O1392       O  0.10352278  0.57904335  0.36512901    -0.78200
O1393       O  0.11264674  0.61061124  0.24783192    -0.78900
C1394       C  0.09105498  0.59651042  0.38326533     0.96300
O1395       O  0.05474703  0.60866605  0.32620366    -0.76900
O1396       O  0.15740721  0.63671650  0.35821454    -0.82100
C1397       C  0.13724784  0.68527173  0.29224368     0.99000
C1398       C  0.18092948  0.63088524  0.34126216     1.04900
O1399       O  0.13911226  0.66496522  0.27268838    -0.77700
C1400       C  0.04966187  0.63505725  0.31922428     1.03200
Fe1401     Fe  0.89520644  0.91564024  0.31749179     1.65800
Fe1402     Fe  0.88275294  0.85013827  0.34605353     1.73200
Fe1403     Fe  0.83964019  0.87541422  0.28685748     1.54400
O1404       O  0.82834743  0.91963368  0.28573920    -0.81500
O1405       O  0.86795936  0.81557959  0.32174929    -0.79800
O1406       O  0.85661552  0.94058558  0.32071885    -0.84000
O1407       O  0.89500241  0.91777105  0.27098731    -0.78800
O1408       O  0.81042637  0.86985410  0.32329399    -0.80600
O1409       O  0.92651872  0.84582385  0.32409229    -0.83300
C1410       C  0.88617657  0.90381596  0.24778697     0.97400
C1411       C  0.83611140  0.94184189  0.30082835     1.04900
O1412       O  0.87259471  0.87999935  0.31657403    -1.12300
O1413       O  0.90068898  0.87558687  0.38034874    -0.74800
O1414       O  0.89722356  0.92008011  0.36377148    -0.78200
O1415       O  0.86814106  0.88248299  0.24984793    -0.78900
C1416       C  0.90191020  0.90242827  0.38483589     0.96300
O1417       O  0.93589078  0.89244074  0.31388882    -0.76900
O1418       O  0.83779953  0.85638867  0.36453292    -0.82100
C1419       C  0.85433544  0.81029053  0.29743006     0.99000
C1420       C  0.81261671  0.86432194  0.35159894     1.04900
O1421       O  0.84459255  0.83051298  0.28063153    -0.77700
C1422       C  0.94313081  0.86565320  0.31200462     1.03200
Fe1423     Fe  0.89044882  0.58137619  0.24649150     1.65800
Fe1424     Fe  0.87830399  0.64690391  0.21542704     1.73200
Fe1425     Fe  0.83519645  0.62390633  0.27587939     1.54400
O1426       O  0.82428450  0.57972031  0.27858662    -0.81500
O1427       O  0.86699056  0.68241642  0.24097642    -0.79800
O1428       O  0.85141924  0.55788146  0.24267059    -0.84000
O1429       O  0.88858226  0.57986043  0.29322841    -0.78800
O1430       O  0.80578409  0.62919172  0.24034223    -0.80600
O1431       O  0.92313548  0.64886390  0.23446503    -0.83300
C1432       C  0.88073494  0.59591012  0.31551100     0.97400
C1433       C  0.83174007  0.55704522  0.26367493     1.04900
O1434       O  0.86804921  0.61780566  0.24580667    -1.12300
O1435       O  0.89266007  0.61942266  0.18057082    -0.74800
O1436       O  0.89566487  0.57595940  0.20038427    -0.78200
O1437       O  0.86392998  0.61816280  0.31219909    -0.78900
C1438       C  0.89742369  0.59260446  0.17796195     0.96300
O1439       O  0.93064966  0.60345580  0.25111724    -0.76900
O1440       O  0.83243662  0.64435450  0.19924826    -0.82100
C1441       C  0.85214681  0.68833032  0.26474457     0.99000
C1442       C  0.80745062  0.63657035  0.21255186     1.04900
O1443       O  0.83998808  0.66874552  0.28061611    -0.77700
C1444       C  0.93881392  0.62973026  0.24899011     1.03200
C1445       C  0.85008397  0.72812956  0.30392932    -0.21100
C1446       C  0.84927070  0.71943153  0.27347546    -0.09100
C1447       C  0.84747911  0.74097746  0.25097540     0.29700
C1448       C  0.84781700  0.77043381  0.25877925    -0.21100
C1449       C  0.85037900  0.77917850  0.28913319    -0.09100
C1450       C  0.85081167  0.75756375  0.31174686     0.29700
F1451       F  0.85216997  0.76480603  0.34157333    -0.19700
H1452       H  0.85127068  0.71211474  0.32168325     0.18100
H1453       H  0.84712714  0.78638549  0.24094709     0.18100
F1454       F  0.84548743  0.73353680  0.22125775    -0.19700
C1455       C  0.82319429  0.99270301  0.31486196    -0.21100
C1456       C  0.82457196  0.97088549  0.29259467    -0.09100
C1457       C  0.82340747  0.97881789  0.26186504     0.29700
C1458       C  0.82299628  0.50476933  0.25310818    -0.21100
C1459       C  0.82110834  0.52817394  0.27350692    -0.09100
C1460       C  0.81651334  0.52236321  0.30454442     0.29700
F1461       F  0.81500013  0.54421026  0.32517347    -0.19700
H1462       H  0.82452224  0.98712597  0.33862905     0.18100
H1463       H  0.82692587  0.50854015  0.22919654     0.18100
F1464       F  0.82570704  0.95847690  0.23963858    -0.19700
C1465       C  0.96724224  0.62544524  0.29716973    -0.21100
C1466       C  0.96601471  0.63733297  0.26790079    -0.09100
C1467       C  0.99131352  0.65326817  0.25783710     0.29700
C1468       C  0.01787989  0.65519819  0.27601145    -0.21100
C1469       C  0.01956084  0.64140060  0.30449174    -0.09100
C1470       C  0.99330440  0.62737722  0.31508913     0.29700
F1471       F  0.99318862  0.61409483  0.34235975    -0.19700
H1472       H  0.94804134  0.61347248  0.30595811     0.18100
H1473       H  0.03789969  0.66557808  0.26682117     0.18100
F1474       F  0.99133712  0.66495077  0.22974160    -0.19700
C1475       C  0.00147533  0.87402428  0.24830314    -0.21100
C1476       C  0.02573926  0.85555557  0.25599281    -0.09100
C1477       C  0.02124025  0.83697744  0.28104604     0.29700
C1478       C  0.99388860  0.83856659  0.29879529    -0.21100
C1479       C  0.97076863  0.85902339  0.29214734    -0.09100
C1480       C  0.97488087  0.87588263  0.26586871     0.29700
F1481       F  0.95344064  0.89544268  0.25750771    -0.19700
H1482       H  0.00379443  0.88865359  0.22939910     0.18100
H1483       H  0.99168092  0.82512169  0.31864781     0.18100
F1484       F  0.04415318  0.81911090  0.28992208    -0.19700
C1485       C  0.13811371  0.76778591  0.30081816    -0.21100
C1486       C  0.14535425  0.77720254  0.27164573    -0.09100
C1487       C  0.15211417  0.75590782  0.24920335     0.29700
C1488       C  0.14992502  0.72615201  0.25568913    -0.21100
C1489       C  0.14123591  0.71678023  0.28470192    -0.09100
C1490       C  0.13606197  0.73830027  0.30736068     0.29700
F1491       F  0.12811701  0.73114932  0.33610305    -0.19700
H1492       H  0.13289962  0.78336175  0.31857248     0.18100
H1493       H  0.15476512  0.71049765  0.23791845     0.18100
F1494       F  0.16080562  0.76377158  0.22086586    -0.19700
C1495       C  0.17708746  0.97485988  0.30787777    -0.21100
C1496       C  0.17327970  0.96744622  0.27725675    -0.09100
C1497       C  0.17442335  0.98952370  0.25541991     0.29700
C1498       C  0.16725831  0.51548474  0.25763715    -0.21100
C1499       C  0.16485038  0.52513768  0.28779864    -0.09100
C1500       C  0.16739838  0.50477264  0.31125518     0.29700
F1501       F  0.16549989  0.51338330  0.34067612    -0.19700
H1502       H  0.17630371  0.95832820  0.32512316     0.18100
H1503       H  0.16525328  0.53070038  0.23918657     0.18100
F1504       F  0.17152496  0.98311893  0.22551145    -0.19700
C1505       C  0.26223085  0.64536257  0.36382973    -0.21100
C1506       C  0.27555554  0.61792432  0.35892812    -0.09100
C1507       C  0.25632899  0.59425914  0.35422937     0.29700
C1508       C  0.22467882  0.59836155  0.35213685    -0.21100
C1509       C  0.21151056  0.62611040  0.35463709    -0.09100
C1510       C  0.23045371  0.64948815  0.36169640     0.29700
F1511       F  0.21871621  0.67670009  0.36305727    -0.19700
H1512       H  0.27665768  0.66407189  0.36633142     0.18100
H1513       H  0.21065705  0.58016343  0.34585361     0.18100
F1514       F  0.26844251  0.56771202  0.34822041    -0.19700
C1515       C  0.26114229  0.90645202  0.21245668    -0.21100
C1516       C  0.28270503  0.88398052  0.20940399    -0.09100
C1517       C  0.27209832  0.85615907  0.20198267     0.29700
C1518       C  0.24053087  0.85056713  0.20059425    -0.21100
C1519       C  0.21893913  0.87266294  0.20622201    -0.09100
C1520       C  0.22971640  0.90095547  0.21074765     0.29700
F1521       F  0.20973896  0.92272623  0.21735637    -0.19700
H1522       H  0.26851687  0.92783743  0.21902819     0.18100
H1523       H  0.23303613  0.82847091  0.19812121     0.18100
F1524       F  0.29213443  0.83370432  0.19960959    -0.19700
C1525       C  0.32320453  0.74436603  0.31613726    -0.21100
C1526       C  0.32664526  0.72224399  0.29440491    -0.09100
C1527       C  0.32617090  0.72962437  0.26348426     0.29700
C1528       C  0.32720812  0.75871580  0.25488763    -0.21100
C1529       C  0.32752210  0.78080030  0.27690887    -0.09100
C1530       C  0.32306927  0.77340996  0.30748157     0.29700
F1531       F  0.32321579  0.79408795  0.32942193    -0.19700
H1532       H  0.32351469  0.73924328  0.34005653     0.18100
H1533       H  0.33060603  0.76387402  0.23119661     0.18100
F1534       F  0.32910809  0.70889141  0.24173256    -0.19700
C1535       C  0.35212669  0.51120499  0.31734239    -0.21100
C1536       C  0.35363766  0.53191327  0.29383402    -0.09100
C1537       C  0.35320036  0.52185211  0.26380328     0.29700
C1538       C  0.34929483  0.99166121  0.26207961    -0.21100
C1539       C  0.35665910  0.97067811  0.28415170    -0.09100
C1540       C  0.36500057  0.98043881  0.31304932     0.29700
F1541       F  0.37295258  0.96133988  0.33489387    -0.19700
H1542       H  0.35243987  0.51794284  0.34088023     0.18100
H1543       H  0.34269591  0.98496579  0.23951463     0.18100
F1544       F  0.35457094  0.54058912  0.24033212    -0.19700
C1545       C  0.50488106  0.60020506  0.27665766    -0.21100
C1546       C  0.52922659  0.61238376  0.29287195    -0.09100
C1547       C  0.52422257  0.61877957  0.32399468     0.29700
C1548       C  0.49554391  0.61577937  0.33749944    -0.21100
C1549       C  0.47063484  0.60601446  0.32089297    -0.09100
C1550       C  0.47576165  0.59712601  0.29050799     0.29700
F1551       F  0.45200010  0.58827516  0.27336110    -0.19700
H1552       H  0.50766865  0.59516822  0.25279968     0.18100
H1553       H  0.49229379  0.62317467  0.36066040     0.18100
F1554       F  0.54664475  0.63013956  0.34122618    -0.19700
C1555       C  0.75851045  0.65969891  0.19811076    -0.21100
C1556       C  0.77771815  0.63528334  0.19667371    -0.09100
C1557       C  0.76405706  0.60797110  0.19354013     0.29700
C1558       C  0.73228392  0.60488412  0.19677968    -0.21100
C1559       C  0.71356475  0.62899203  0.20305342    -0.09100
C1560       C  0.72675480  0.65664746  0.20122847     0.29700
F1561       F  0.70953823  0.68053283  0.20744266    -0.19700
H1562       H  0.76827400  0.68089955  0.20124003     0.18100
H1563       H  0.72303799  0.58336621  0.19866836     0.18100
F1564       F  0.78187219  0.58382658  0.19250871    -0.19700
C1565       C  0.52144382  0.91799463  0.28049115    -0.21100
C1566       C  0.52528291  0.90244677  0.30776197    -0.09100
C1567       C  0.50048802  0.88609112  0.31800115     0.29700
C1568       C  0.47404151  0.88337212  0.30039924    -0.21100
C1569       C  0.47080200  0.89733300  0.27233066    -0.09100
C1570       C  0.49441148  0.91578419  0.26309555     0.29700
F1571       F  0.49274413  0.92934142  0.23599303    -0.19700
H1572       H  0.54053767  0.92973628  0.27117244     0.18100
H1573       H  0.45650083  0.86881587  0.30793828     0.18100
F1574       F  0.50333732  0.86981637  0.34333419    -0.19700
C1575       C  0.73102535  0.85232252  0.37265457    -0.21100
C1576       C  0.71960865  0.88089694  0.37107410    -0.09100
C1577       C  0.74072746  0.90349662  0.37235727     0.29700
C1578       C  0.77229451  0.89756978  0.37127230    -0.21100
C1579       C  0.78359910  0.86901666  0.36887505    -0.09100
C1580       C  0.76264029  0.84639233  0.37161249     0.29700
F1581       F  0.77242059  0.81857759  0.36897146    -0.19700
H1582       H  0.71540514  0.83442001  0.37084273     0.18100
H1583       H  0.78777948  0.91545603  0.36843476     0.18100
F1584       F  0.73090593  0.93126603  0.36985520    -0.19700
C1585       C  0.67877849  0.76913834  0.32263342    -0.21100
C1586       C  0.67700528  0.78673978  0.29679150    -0.09100
C1587       C  0.68151780  0.77405771  0.26811792     0.29700
C1588       C  0.68317931  0.74390567  0.26525058    -0.21100
C1589       C  0.68084270  0.72612240  0.29090437    -0.09100
C1590       C  0.68089240  0.73902898  0.31977782     0.29700
F1591       F  0.67797065  0.72258122  0.34497005    -0.16500
H1592       H  0.67519196  0.77849850  0.34496340     0.18100
H1593       H  0.68261311  0.73437507  0.24277285     0.18100
F1594       F  0.67953870  0.79032804  0.24271116    -0.19700
C1595       C  0.65222293  0.98617076  0.27381661    -0.21100
C1596       C  0.64724105  0.97716196  0.30374270    -0.09100
C1597       C  0.64395741  0.99854659  0.32658483     0.29700
C1598       C  0.61937168  0.52226734  0.28882924    -0.21100
C1599       C  0.64722195  0.53632280  0.28396989    -0.09100
C1600       C  0.67441372  0.51995399  0.28548611     0.29700
F1601       F  0.70171131  0.53261889  0.28033180    -0.19700
H1602       H  0.65467482  0.97034343  0.25576419     0.18100
H1603       H  0.59807788  0.53428784  0.28767513     0.18100
F1604       F  0.63932659  0.99098942  0.35592584    -0.19700
C1605       C  0.05351149  0.55224923  0.44537985    -0.21100
C1606       C  0.02291883  0.55282136  0.43517602    -0.09100
C1607       C  0.01639876  0.57014160  0.40966642     0.29700
C1608       C  0.03839710  0.58764050  0.39692051    -0.21100
C1609       C  0.06880924  0.58539421  0.40543322    -0.09100
C1610       C  0.07646327  0.56761344  0.42995714     0.29700
F1611       F  0.10606253  0.56396273  0.43796248    -0.19700
H1612       H  0.06053664  0.53763295  0.46302243     0.18100
H1613       H  0.03231663  0.60024011  0.37742651     0.18100
F1614       F  0.99054038  0.56671049  0.39342177    -0.19700
C1615       C  0.09301609  0.92022366  0.36486933    -0.21100
C1616       C  0.07956854  0.90660875  0.33989841    -0.09100
C1617       C  0.04771519  0.90768653  0.33672758     0.29700
C1618       C  0.02986238  0.92384397  0.35681712    -0.21100
C1619       C  0.04337318  0.93959307  0.38025538    -0.09100
C1620       C  0.07501857  0.93672551  0.38502906     0.29700
F1621       F  0.08857976  0.95039688  0.40856239    -0.19700
H1622       H  0.11758034  0.92004549  0.36733467     0.18100
H1623       H  0.00557524  0.92562119  0.35282766     0.18100
F1624       F  0.03416464  0.89541937  0.31237510    -0.19700
C1625       C  0.91077022  0.95581575  0.44821346    -0.21100
C1626       C  0.94178547  0.95066610  0.45405574    -0.09100
C1627       C  0.95228681  0.92198296  0.44990768     0.29700
C1628       C  0.93699252  0.90385741  0.42943188    -0.21100
C1629       C  0.91063926  0.91405437  0.41482821    -0.09100
C1630       C  0.89602936  0.93888424  0.42655936     0.29700
F1631       F  0.86889007  0.94800860  0.41527153    -0.19700
H1632       H  0.89911713  0.97462328  0.45729570     0.18100
H1633       H  0.94785996  0.88385843  0.42211576     0.18100
F1634       F  0.98017140  0.91379502  0.46014439    -0.19700
C1635       C  0.91134888  0.56304636  0.34744347    -0.21100
C1636       C  0.89145340  0.58697690  0.34584407    -0.09100
C1637       C  0.88165961  0.60047949  0.37305488     0.29700
C1638       C  0.89188244  0.59001509  0.40111250    -0.21100
C1639       C  0.91146304  0.56590758  0.40214792    -0.09100
C1640       C  0.92106057  0.55258133  0.37507448     0.29700
F1641       F  0.94027018  0.52940830  0.37544230    -0.19700
H1642       H  0.91950017  0.55204736  0.32717743     0.18100
H1643       H  0.88449176  0.60050385  0.42193440     0.18100
F1644       F  0.86212549  0.62339446  0.37263691    -0.19700
C1645       C  0.59235672  0.79201320  0.39319302    -0.21100
C1646       C  0.58840118  0.82097176  0.40135859    -0.09100
C1647       C  0.57209409  0.82786140  0.42806029     0.29700
C1648       C  0.55736827  0.80584794  0.44446618    -0.21100
C1649       C  0.55829628  0.77701166  0.43388868    -0.09100
C1650       C  0.57654702  0.77060645  0.40801172     0.29700
F1651       F  0.57562455  0.74450515  0.39384353    -0.19700
H1652       H  0.60471929  0.78622602  0.37261845     0.18100
H1653       H  0.54270269  0.81184513  0.46333183     0.18100
F1654       F  0.56769004  0.85584552  0.43637636    -0.19700
C1655       C  0.46882828  0.66404745  0.43471698    -0.21100
C1656       C  0.46440519  0.69160694  0.44776453    -0.09100
C1657       C  0.43384533  0.70151653  0.45126485     0.29700
C1658       C  0.41004453  0.68733963  0.43616655    -0.21100
C1659       C  0.41577312  0.66149906  0.42026583    -0.09100
C1660       C  0.44469062  0.64853544  0.42266785     0.29700
F1661       F  0.45107455  0.62294780  0.40867011    -0.19700
H1662       H  0.49087917  0.65549452  0.42975982     0.18100
H1663       H  0.38780284  0.69763608  0.43499572     0.18100
F1664       F  0.42771890  0.72762087  0.46423041    -0.19700
C1665       C  0.45178898  0.82096805  0.38020845    -0.21100
C1666       C  0.44674850  0.79081834  0.38035314    -0.09100
C1667       C  0.42060328  0.78044865  0.36548380     0.29700
C1668       C  0.40167835  0.79930469  0.34951171    -0.21100
C1669       C  0.40827643  0.82880638  0.34725076    -0.09100
C1670       C  0.43285206  0.83975203  0.36371302     0.29700
F1671       F  0.43970945  0.86820135  0.36228488    -0.19700
H1672       H  0.47094250  0.83012026  0.39204728     0.18100
H1673       H  0.38343436  0.79022354  0.33615311     0.18100
F1674       F  0.41454986  0.75183469  0.36373719    -0.19700
C1675       C  0.58548541  0.63891746  0.41484653    -0.21100
C1676       C  0.59471041  0.66444623  0.42968175    -0.09100
C1677       C  0.62371474  0.67548403  0.42179659     0.29700
C1678       C  0.63746094  0.66728546  0.39440807    -0.21100
C1679       C  0.62442622  0.64577758  0.37651550    -0.09100
C1680       C  0.60069059  0.62933552  0.38859170     0.29700
F1681       F  0.59016600  0.60602148  0.37328317    -0.19700
H1682       H  0.56472398  0.62811350  0.42129541     0.18100
H1683       H  0.65697154  0.67914411  0.38615266     0.18100
F1684       F  0.63732122  0.69621193  0.43865645    -0.19700
C1685       C  0.06449854  0.54908481  0.18561799    -0.21100
C1686       C  0.03328345  0.54718191  0.19277670    -0.09100
C1687       C  0.02058906  0.56609285  0.21452896     0.29700
C1688       C  0.03915796  0.58518501  0.23015962    -0.21100
C1689       C  0.07080299  0.58540182  0.22492876    -0.09100
C1690       C  0.08321643  0.56816722  0.20156913     0.29700
F1691       F  0.11375496  0.56759298  0.19638927    -0.19700
H1692       H  0.07448150  0.53520022  0.16830887     0.18100
H1693       H  0.02931017  0.59764726  0.24871142     0.18100
F1694       F  0.99069995  0.56438855  0.22247976    -0.19700
C1695       C  0.06131293  0.95248747  0.12173663    -0.21100
C1696       C  0.03103170  0.95354949  0.13303034    -0.09100
C1697       C  0.02403053  0.93582306  0.15808295     0.29700
C1698       C  0.04520704  0.91643627  0.16948321    -0.21100
C1699       C  0.07542155  0.91665028  0.15960848    -0.09100
C1700       C  0.08357985  0.93482413  0.13555977     0.29700
F1701       F  0.11313967  0.93659111  0.12655195    -0.19700
H1702       H  0.06867647  0.96717434  0.10432816     0.18100
H1703       H  0.03870281  0.90366790  0.18881728     0.18100
F1704       F  0.99824044  0.93994245  0.17472691    -0.19700
C1705       C  0.95144785  0.56601451  0.11791910    -0.21100
C1706       C  0.93874292  0.53842164  0.11377527    -0.09100
C1707       C  0.90684290  0.53677092  0.11688034     0.29700
C1708       C  0.89158352  0.55636961  0.13619813    -0.21100
C1709       C  0.90731390  0.57988846  0.14854363    -0.09100
C1710       C  0.93608813  0.58651472  0.13630575     0.29700
F1711       F  0.95141012  0.61000226  0.14633255    -0.19700
H1712       H  0.97532675  0.56939387  0.11276105     0.18100
H1713       H  0.86823821  0.55226293  0.14291114     0.18100
F1714       F  0.89085309  0.51582408  0.10266602    -0.19700
C1715       C  0.91765249  0.93793432  0.21837949    -0.21100
C1716       C  0.89763337  0.91433779  0.21808604    -0.09100
C1717       C  0.88860420  0.90289097  0.18984053     0.29700
C1718       C  0.89974758  0.91493160  0.16273599    -0.21100
C1719       C  0.91947644  0.93860791  0.16371262    -0.09100
C1720       C  0.92832611  0.94986872  0.19175978     0.29700
F1721       F  0.94764653  0.97254851  0.19332887    -0.19700
H1722       H  0.92521496  0.94758527  0.23940935     0.18100
H1723       H  0.89291078  0.90602679  0.14111054     0.18100
F1724       F  0.86893685  0.88051224  0.18835580    -0.19700
C1725       C  0.56439568  0.70338252  0.13767094    -0.21100
C1726       C  0.55925749  0.73245521  0.14624310    -0.09100
C1727       C  0.57019660  0.74126031  0.17519383     0.29700
C1728       C  0.58368809  0.72183086  0.19483113    -0.21100
C1729       C  0.58568317  0.69246152  0.18782357    -0.09100
C1730       C  0.57743144  0.68346317  0.15831812     0.29700
F1731       F  0.57953935  0.65518118  0.15032710    -0.19700
H1732       H  0.55547362  0.69542395  0.11642790     0.18100
H1733       H  0.59009491  0.72967409  0.21707014     0.18100
F1734       F  0.56235095  0.76717770  0.18768180    -0.19700
C1735       C  0.45669880  0.83518804  0.12024913    -0.21100
C1736       C  0.45447782  0.80494242  0.12082664    -0.09100
C1737       C  0.42538804  0.79379258  0.12677997     0.29700
C1738       C  0.40526120  0.81002565  0.14504304    -0.21100
C1739       C  0.41313517  0.83820103  0.15401820    -0.09100
C1740       C  0.43681024  0.85190194  0.13820943     0.29700
F1741       F  0.44347171  0.88003536  0.14350532    -0.19700
H1742       H  0.47574640  0.84549431  0.10927534     0.18100
H1743       H  0.38558038  0.79956456  0.15486636     0.18100
F1744       F  0.41898314  0.76581486  0.12026917    -0.19700
C1745       C  0.55351040  0.85701706  0.19071942    -0.21100
C1746       C  0.56937488  0.84595779  0.16538419    -0.09100
C1747       C  0.60136911  0.84864162  0.16421878     0.29700
C1748       C  0.61724193  0.85877263  0.18955690    -0.21100
C1749       C  0.60125547  0.86645808  0.21602215    -0.09100
C1750       C  0.56927653  0.86698020  0.21583874     0.29700
F1751       F  0.55326940  0.87399819  0.24124106    -0.19700
H1752       H  0.52900941  0.85509127  0.19263176     0.18100
H1753       H  0.64194285  0.85801761  0.18947468     0.18100
F1754       F  0.61733126  0.83913529  0.13961338    -0.19700
C1755       C  0.46744097  0.69062679  0.22088939    -0.21100
C1756       C  0.45218706  0.70740844  0.19919767    -0.09100
C1757       C  0.42072567  0.70297464  0.19476117     0.29700
C1758       C  0.40478631  0.68349879  0.21309083    -0.21100
C1759       C  0.41989664  0.66828252  0.23603978    -0.09100
C1760       C  0.45156012  0.67140296  0.23914188     0.29700
F1761       F  0.46674388  0.65752726  0.26155423    -0.19700
H1762       H  0.49156337  0.69347057  0.22484840     0.18100
H1763       H  0.38027656  0.68192543  0.21083718     0.18100
F1764       F  0.40523186  0.71766020  0.17317252    -0.19700
C1765       C  0.48860465  0.78655084  0.62389412     0.30200
C1766       C  0.53692712  0.74900863  0.63027074     0.30200
C1767       C  0.48794033  0.76754203  0.65263248    -0.06000
C1768       C  0.49262361  0.76380462  0.59843703    -0.06800
C1769       C  0.52081390  0.80032060  0.62514022    -0.06600
C1770       C  0.51237813  0.74837470  0.65511007    -0.06000
C1771       C  0.51780163  0.74423049  0.60126590    -0.06800
C1772       C  0.54501718  0.78094174  0.62701359    -0.06600
C1773       C  0.50227460  0.72476322  0.67111910    -0.32000
N1774       N  0.47292993  0.72886650  0.67949242     0.14500
C1775       C  0.46401366  0.75491001  0.66867313    -0.32000
H1776       H  0.44122668  0.76348820  0.67150602     0.16400
C1777       C  0.52621490  0.73700201  0.57172213    -0.31000
N1778       N  0.50632787  0.74977721  0.55240056     0.13200
C1779       C  0.48648269  0.76648596  0.56814651    -0.31000
C1780       C  0.57127828  0.79632556  0.63114747    -0.31300
N1781       N  0.56397360  0.82456436  0.63534688     0.13700
H1782       H  0.59337623  0.78676500  0.63562215     0.16300
C1783       C  0.53327465  0.82713715  0.63144437    -0.31300
H1784       H  0.52076066  0.84651608  0.63682391     0.16300
H1785       H  0.47061902  0.78163580  0.55803222     0.16300
H1786       H  0.51464197  0.70459366  0.67369483     0.16400
H1787       H  0.54650896  0.72519782  0.56475368     0.16300
C1788       C  0.96625664  0.51111011  0.62259345     0.30200
C1789       C  0.03657394  0.98933367  0.63137275     0.30200
C1790       C  0.99274139  0.00990490  0.66082767    -0.06000
C1791       C  0.99125375  0.51133956  0.59783765    -0.06800
C1792       C  0.98473882  0.51030211  0.65197996    -0.06600
C1793       C  0.01653645  0.98974090  0.66002273    -0.06000
C1794       C  0.01321612  0.98373557  0.60671299    -0.06800
C1795       C  0.00679703  0.48844034  0.65322784    -0.06600
C1796       C  0.00623007  0.96575123  0.67556724    -0.32000
N1797       N  0.97787628  0.97078627  0.68662268     0.14500
C1798       C  0.97018313  0.99805989  0.67890998    -0.32000
H1799       H  0.94860716  0.00812053  0.68446277     0.16400
C1800       C  0.01879401  0.97524873  0.57730279    -0.31000
N1801       N  0.00707934  0.50113659  0.55129144     0.13200
C1802       C  0.98794686  0.51802835  0.56772092    -0.31000
C1803       C  0.03060044  0.49926662  0.67019342    -0.31300
N1804       N  0.02340104  0.52617056  0.68011968     0.13700
H1805       H  0.05286995  0.48923935  0.67236328     0.16300
C1806       C  0.99552249  0.53286610  0.66941170    -0.31300
H1807       H  0.98554926  0.55414549  0.67136928     0.16300
H1808       H  0.96979460  0.53100358  0.55813216     0.16300
H1809       H  0.01702203  0.94464864  0.67490174     0.16400
H1810       H  0.03846878  0.96318951  0.56914294     0.16300
C1811       C  0.48332947  0.71515750  0.95030001     0.30200
C1812       C  0.53184457  0.75142228  0.94177868     0.30200
C1813       C  0.48218828  0.73419377  0.92181845    -0.06000
C1814       C  0.49158425  0.73555815  0.47435358    -0.06800
C1815       C  0.51518524  0.70037346  0.94721068    -0.06600
C1816       C  0.50638777  0.75281482  0.91817593    -0.06000
C1817       C  0.51425368  0.75738598  0.47185678    -0.06800
C1818       C  0.53961826  0.71911866  0.94409842    -0.06600
C1819       C  0.49613706  0.77576267  0.90096120    -0.32000
N1820       N  0.46682430  0.77130312  0.89302465     0.14500
C1821       C  0.45835093  0.74591553  0.90533659    -0.32000
H1822       H  0.43538797  0.73812279  0.90464346     0.16400
C1823       C  0.52311783  0.76355777  0.50131404    -0.31000
N1824       N  0.50641309  0.74751929  0.52067157     0.13200
C1825       C  0.48767163  0.73030957  0.50481460    -0.31000
C1826       C  0.56525708  0.70295591  0.93782607    -0.31300
N1827       N  0.55723849  0.67501777  0.93386273     0.13700
H1828       H  0.58723275  0.71173601  0.93191218     0.16300
C1829       C  0.52675712  0.67329947  0.93941359    -0.31300
H1830       H  0.51368198  0.65439743  0.93421832     0.16300
H1831       H  0.47406743  0.71336053  0.51466584     0.16300
H1832       H  0.50862400  0.79533683  0.89662784     0.16400
H1833       H  0.54195795  0.77700904  0.50803170     0.16300
C1834       C  0.96684980  0.98075152  0.95057456     0.30200
C1835       C  0.00518410  0.52305767  0.94231445     0.30200
C1836       C  0.94973215  0.51231516  0.94854919    -0.06000
C1837       C  0.98762778  0.97625717  0.48061410    -0.06800
C1838       C  0.98669357  0.97500317  0.92211227    -0.06600
C1839       C  0.97224265  0.53377401  0.94965927    -0.06000
C1840       C  0.00613742  0.50986730  0.47146755    -0.06800
C1841       C  0.00803978  0.99634114  0.91638845    -0.06600
C1842       C  0.95821905  0.55976534  0.94320076    -0.32000
N1843       N  0.93024911  0.55466740  0.93206456     0.14500
C1844       C  0.92485634  0.52618904  0.93562414    -0.32000
H1845       H  0.90782724  0.51565962  0.92208883     0.16400
C1846       C  0.01693589  0.51647267  0.49987515    -0.31000
N1847       N  0.00525478  0.49767648  0.51988016     0.13200
C1848       C  0.98206738  0.97043700  0.51060705    -0.31000
C1849       C  0.03298806  0.98330348  0.90272787    -0.31300
N1850       N  0.02848703  0.95468067  0.90022127     0.13700
H1851       H  0.05402672  0.99416021  0.89743116     0.16300
C1852       C  0.00030505  0.94945908  0.91143238    -0.31300
H1853       H  0.99154702  0.92798574  0.91376339     0.16300
H1854       H  0.96389248  0.95724699  0.51951276     0.16300
H1855       H  0.96963374  0.58017565  0.94052648     0.16400
H1856       H  0.02925263  0.53569752  0.50627293     0.16300
Fe1857     Fe  0.60566040  0.83698027  0.79829758     1.65800
Fe1858     Fe  0.62204129  0.89186190  0.84711768     1.73200
Fe1859     Fe  0.66878010  0.87679277  0.78516012     1.54400
O1860       O  0.68064716  0.83265780  0.78030966    -0.81500
O1861       O  0.63319796  0.93079408  0.82722853    -0.79800
O1862       O  0.64095598  0.80828671  0.79854740    -0.84000
O1863       O  0.61024683  0.84442284  0.75276448    -0.78800
O1864       O  0.69570193  0.87742558  0.82258782    -0.80600
O1865       O  0.57641302  0.89898554  0.83109433    -0.83300
C1866       C  0.62427447  0.86167531  0.73566003     0.97400
C1867       C  0.66812616  0.80930463  0.78892652     1.04900
O1868       O  0.63220135  0.86875251  0.81031242    -1.12300
O1869       O  0.60894419  0.85713527  0.87472216    -0.74800
O1870       O  0.59618925  0.82371141  0.84145559    -0.78200
O1871       O  0.64585392  0.87727992  0.74466681    -0.78900
C1872       C  0.59887339  0.83221060  0.86856978     0.96300
O1873       O  0.56850215  0.86360575  0.79716815    -0.76900
O1874       O  0.66717906  0.88623836  0.86410563    -0.82100
C1875       C  0.64799442  0.93911509  0.80414758     0.99000
C1876       C  0.69281416  0.88044389  0.85100341     1.04900
O1877       O  0.66193978  0.92146042  0.78658097    -0.77700
C1878       C  0.56012866  0.88655594  0.81069018     1.03200
Fe1879     Fe  0.60779296  0.66604483  0.77001676     1.65800
Fe1880     Fe  0.62276795  0.60841038  0.72775949     1.73200
Fe1881     Fe  0.66988277  0.62623000  0.78591065     1.54400
O1882       O  0.68488806  0.66870313  0.78121157    -0.81500
O1883       O  0.63976451  0.57076305  0.74750951    -0.79800
O1884       O  0.64100434  0.69222603  0.78744213    -0.84000
O1885       O  0.59942035  0.64920663  0.81192089    -0.78800
O1886       O  0.69612114  0.61662868  0.74801580    -0.80600
O1887       O  0.58026404  0.59999763  0.75091627    -0.83300
C1888       C  0.61810550  0.64036421  0.83182062     0.97400
C1889       C  0.66972121  0.69194874  0.78499816     1.04900
O1890       O  0.63427114  0.63354864  0.76113317    -1.12300
O1891       O  0.60413935  0.64291048  0.70171272    -0.74800
O1892       O  0.61633206  0.68219087  0.72789556    -0.78200
O1893       O  0.64627725  0.63544959  0.82620800    -0.78900
C1894       C  0.60690942  0.67037530  0.70365240     0.96300
O1895       O  0.57002752  0.64590819  0.75305003    -0.76900
O1896       O  0.66574923  0.61642550  0.70707373    -0.82100
C1897       C  0.64981021  0.56403820  0.77353112     0.99000
C1898       C  0.69220244  0.61777567  0.71945548     1.04900
O1899       O  0.65866008  0.58305944  0.79236126    -0.77700
C1900       C  0.56273611  0.62059451  0.76001445     1.03200
Fe1901     Fe  0.40237008  0.83793903  0.74807628     1.65800
Fe1902     Fe  0.38347485  0.90270469  0.72209839     1.73200
Fe1903     Fe  0.34917632  0.87803286  0.78583392     1.54400
O1904       O  0.33481944  0.83486068  0.78448702    -0.81500
O1905       O  0.36563524  0.93671782  0.74653720    -0.79800
O1906       O  0.36564419  0.81145861  0.75204879    -0.84000
O1907       O  0.40951915  0.83517477  0.79338547    -0.78800
O1908       O  0.31613922  0.88812717  0.75357422    -0.80600
O1909       O  0.42701803  0.90960678  0.74137548    -0.83300
C1910       C  0.39998912  0.84611099  0.81806082     0.97400
C1911       C  0.34313906  0.81203302  0.77019199     1.04900
O1912       O  0.37822339  0.87278486  0.75247159    -1.12300
O1913       O  0.40395002  0.87802966  0.68781619    -0.74800
O1914       O  0.39646483  0.83366453  0.70220304    -0.78200
O1915       O  0.38003765  0.86627178  0.81953206    -0.78900
C1916       C  0.40435930  0.85130138  0.68224870     0.96300
O1917       O  0.44161303  0.86296588  0.74500609    -0.76900
O1918       O  0.33876396  0.89274464  0.70747497    -0.82100
C1919       C  0.36208559  0.94215540  0.77430517     0.99000
C1920       C  0.31514045  0.88837627  0.72451207     1.04900
O1921       O  0.35999962  0.92176262  0.79335824    -0.77700
C1922       C  0.44621597  0.88991940  0.74961520     1.03200
Fe1923     Fe  0.39760739  0.67078576  0.82696374     1.65800
Fe1924     Fe  0.38339353  0.60443534  0.85046417     1.73200
Fe1925     Fe  0.34826197  0.63007896  0.78689463     1.54400
O1926       O  0.33532979  0.67388297  0.78565110    -0.81500
O1927       O  0.37053836  0.57055567  0.82472937    -0.79800
O1928       O  0.35917743  0.69590827  0.82321417    -0.84000
O1929       O  0.40668612  0.67336774  0.78138122    -0.78800
O1930       O  0.31473034  0.62225319  0.81912272    -0.80600
O1931       O  0.42873224  0.60053833  0.83326139    -0.83300
C1932       C  0.40135542  0.65992683  0.75682254     0.97400
C1933       C  0.34051704  0.69629196  0.80156103     1.04900
O1934       O  0.37634136  0.63484279  0.82100382    -1.12300
O1935       O  0.39912188  0.62928032  0.88611005    -0.74800
O1936       O  0.39041190  0.67404908  0.87310256    -0.78200
O1937       O  0.38187901  0.63962876  0.75472846    -0.78900
C1938       C  0.39821989  0.65578561  0.89263358     0.96300
O1939       O  0.43854026  0.64791715  0.83084212    -0.76900
O1940       O  0.33714009  0.61023964  0.86384559    -0.82100
C1941       C  0.36091765  0.56493439  0.79871347     0.99000
C1942       C  0.31359660  0.61670392  0.84757616     1.04900
O1943       O  0.35503077  0.58509296  0.78009569    -0.77700
C1944       C  0.44694533  0.62148955  0.82749720     1.03200
Fe1945     Fe  0.10489456  0.91172074  0.76086644     1.65800
Fe1946     Fe  0.12160066  0.85097831  0.72552841     1.73200
Fe1947     Fe  0.16119333  0.86932014  0.78883017     1.54400
O1948       O  0.17860996  0.91175781  0.78778137    -0.81500
O1949       O  0.13824809  0.81435635  0.74582788    -0.79800
O1950       O  0.13850737  0.93856482  0.77489190    -0.84000
O1951       O  0.09224961  0.90329652  0.80432440    -0.78800
O1952       O  0.19162096  0.85923594  0.75401351    -0.80600
O1953       O  0.07794483  0.84325694  0.74651701    -0.83300
C1954       C  0.10614973  0.89275803  0.82692503     0.97400
C1955       C  0.16603648  0.93617340  0.78261081     1.04900
O1956       O  0.12975429  0.87727504  0.75909353    -1.12300
O1957       O  0.10297939  0.88204526  0.69591470    -0.74800
O1958       O  0.11832742  0.92163541  0.71813587    -0.78200
O1959       O  0.13227168  0.88029426  0.82526386    -0.78900
C1960       C  0.10799926  0.90895705  0.69511283     0.96300
O1961       O  0.06721698  0.88951873  0.74575067    -0.76900
O1962       O  0.16637935  0.86017633  0.70944880    -0.82100
C1963       C  0.14432308  0.80671839  0.77250924     0.99000
C1964       C  0.19117360  0.86128742  0.72511833     1.04900
O1965       O  0.14876402  0.82549760  0.79332310    -0.77700
C1966       C  0.06014836  0.86432377  0.75414659     1.03200
Fe1967     Fe  0.10397903  0.57712169  0.82307564     1.65800
Fe1968     Fe  0.11900690  0.64246371  0.84837280     1.73200
Fe1969     Fe  0.15518232  0.61791428  0.78498016     1.54400
O1970       O  0.16987339  0.57449866  0.78401773    -0.81500
O1971       O  0.13575070  0.67667477  0.82499859    -0.79800
O1972       O  0.14133630  0.55094942  0.81732584    -0.84000
O1973       O  0.09449494  0.57604052  0.77800587    -0.78800
O1974       O  0.18757418  0.62663337  0.81806014    -0.80600
O1975       O  0.07576146  0.64809130  0.82814763    -0.83300
C1976       C  0.10155111  0.58935543  0.75398255     0.97400
C1977       C  0.16300228  0.55164519  0.79833976     1.04900
O1978       O  0.12637821  0.61248892  0.81824945    -1.12300
O1979       O  0.09829442  0.61704280  0.88121598    -0.74800
O1980       O  0.11251027  0.57346508  0.86877567    -0.78200
O1981       O  0.12283686  0.60788922  0.75231296    -0.78900
C1982       C  0.09921021  0.59038389  0.88687974     0.96300
O1983       O  0.06341604  0.60116848  0.82829772    -0.76900
O1984       O  0.16377958  0.63420446  0.86359254    -0.82100
C1985       C  0.14238501  0.68249694  0.79803712     0.99000
C1986       C  0.18785547  0.62956524  0.84705970     1.04900
O1987       O  0.14574327  0.66242258  0.77844293    -0.77700
C1988       C  0.05684518  0.62765585  0.82267806     1.03200
Fe1989     Fe  0.90186793  0.91550878  0.82900974     1.65800
Fe1990     Fe  0.88571648  0.85086576  0.85485379     1.73200
Fe1991     Fe  0.84885167  0.87539176  0.79253878     1.54400
O1992       O  0.83155141  0.91752401  0.79498751    -0.81500
O1993       O  0.86914967  0.81644705  0.83039191    -0.79800
O1994       O  0.86665464  0.94323896  0.81893572    -0.84000
O1995       O  0.91483802  0.91322093  0.78459255    -0.78800
O1996       O  0.81692148  0.86401031  0.82552424    -0.80600
O1997       O  0.92966374  0.84508588  0.83426072    -0.83300
C1998       C  0.90400290  0.90309228  0.76017507     0.97400
C1999       C  0.84146382  0.94129583  0.80530801     1.04900
O2000       O  0.87823152  0.88079318  0.82493478    -1.12300
O2001       O  0.90396711  0.87790368  0.88853035    -0.74800
O2002       O  0.88942235  0.92090508  0.87360776    -0.78200
O2003       O  0.87963136  0.88823471  0.75885157    -0.78900
C2004       C  0.89921586  0.90446841  0.89408531     0.96300
O2005       O  0.94066804  0.89128145  0.83954087    -0.76900
O2006       O  0.84072775  0.85879496  0.87074051    -0.82100
C2007       C  0.86348255  0.81153402  0.80289071     0.99000
C2008       C  0.81652710  0.86228569  0.85454694     1.04900
O2009       O  0.86113852  0.83208000  0.78405789    -0.77700
C2010       C  0.94804325  0.86614275  0.82987106     1.03200
Fe2011     Fe  0.89286591  0.58047752  0.75111440     1.65800
Fe2012     Fe  0.88438238  0.64608248  0.72036167     1.73200
Fe2013     Fe  0.83960350  0.62532544  0.78036139     1.54400
O2014       O  0.82617731  0.58140128  0.78297875    -0.81500
O2015       O  0.87358840  0.68211908  0.74501145    -0.79800
O2016       O  0.85292157  0.55868861  0.74735476    -0.84000
O2017       O  0.89175151  0.57967217  0.79777853    -0.78800
O2018       O  0.81078598  0.63119392  0.74445413    -0.80600
O2019       O  0.92874841  0.64693142  0.74064080    -0.83300
C2020       C  0.88544170  0.59680188  0.81964816     0.97400
C2021       C  0.83205018  0.55884492  0.76711093     1.04900
O2022       O  0.87239907  0.61773389  0.75062155    -1.12300
O2023       O  0.89923170  0.61833495  0.68633370    -0.74800
O2024       O  0.89652191  0.57460764  0.70521076    -0.78200
O2025       O  0.86837945  0.61890013  0.81648513    -0.78900
C2026       C  0.90096095  0.59132372  0.68331716     0.96300
O2027       O  0.93439379  0.60059121  0.75486992    -0.76900
O2028       O  0.83885603  0.64344472  0.70310366    -0.82100
C2029       C  0.85940886  0.68919343  0.76878151     0.99000
C2030       C  0.81341494  0.63656739  0.71620214     1.04900
O2031       O  0.84632954  0.67026251  0.78491623    -0.77700
C2032       C  0.94370742  0.62660373  0.75414955     1.03200
C2033       C  0.84734263  0.73045120  0.80532021    -0.21100
C2034       C  0.85868606  0.72078973  0.77712418    -0.09100
C2035       C  0.86993522  0.74186755  0.75676222     0.29700
C2036       C  0.87037269  0.77127012  0.76475180    -0.21100
C2037       C  0.86008260  0.78068525  0.79328062    -0.09100
C2038       C  0.84811858  0.75991464  0.81339057     0.29700
F2039       F  0.83689759  0.76812300  0.84090606    -0.19700
H2040       H  0.83826218  0.71514238  0.82139231     0.18100
H2041       H  0.87971251  0.78662299  0.74886190     0.18100
F2042       F  0.88089454  0.73423656  0.72897542    -0.19700
C2043       C  0.82249870  0.98985334  0.82183535    -0.21100
C2044       C  0.82517072  0.96867034  0.79898211    -0.09100
C2045       C  0.82043645  0.97671956  0.76871779     0.29700
C2046       C  0.81521553  0.51004203  0.75014654    -0.21100
C2047       C  0.81775185  0.53056903  0.77369476    -0.09100
C2048       C  0.81558856  0.52098537  0.80380875     0.29700
F2049       F  0.81773264  0.53999288  0.82721898    -0.19700
H2050       H  0.82602564  0.98407404  0.84531851     0.18100
H2051       H  0.81679041  0.51683314  0.72673867     0.18100
F2052       F  0.82281014  0.95680176  0.74610526    -0.19700
C2053       C  0.97466757  0.61609075  0.79989780    -0.21100
C2054       C  0.97171953  0.63204665  0.77294173    -0.09100
C2055       C  0.99586400  0.65047003  0.76498960     0.29700
C2056       C  0.02290137  0.65106613  0.78264520    -0.21100
C2057       C  0.02625443  0.63342127  0.80854123    -0.09100
C2058       C  0.00122304  0.61658947  0.81723484     0.29700
F2059       F  0.00277847  0.59949413  0.84203991    -0.19700
H2060       H  0.95638605  0.60223599  0.80728827     0.18100
H2061       H  0.04193079  0.66387097  0.77494844     0.18100
F2062       F  0.99424319  0.66632525  0.73931045    -0.19700
C2063       C  0.02117248  0.88745836  0.78823339    -0.21100
C2064       C  0.03182042  0.86190749  0.77402816    -0.09100
C2065       C  0.01555773  0.83633306  0.78025059     0.29700
C2066       C  0.98882337  0.83707042  0.79899237    -0.21100
C2067       C  0.97820579  0.86310932  0.81273788    -0.09100
C2068       C  0.99560454  0.88813827  0.80728505     0.29700
F2069       F  0.98765847  0.91411346  0.81960524    -0.19700
H2070       H  0.03291949  0.90764826  0.78484791     0.18100
H2071       H  0.97620745  0.81736274  0.80234236     0.18100
F2072       F  0.02486894  0.81088808  0.76772736    -0.19700
C2073       C  0.15016093  0.76435559  0.80800686    -0.21100
C2074       C  0.14576528  0.77475053  0.77858601    -0.09100
C2075       C  0.14220630  0.75408030  0.75490525     0.29700
C2076       C  0.14217493  0.72422550  0.76091166    -0.21100
C2077       C  0.14553603  0.71397756  0.79055401    -0.09100
C2078       C  0.15009714  0.73459659  0.81397748     0.29700
F2079       F  0.15446910  0.72608908  0.84301945    -0.19700
H2080       H  0.15328536  0.77931983  0.82666100     0.18100
H2081       H  0.13866026  0.70916702  0.74241084     0.18100
F2082       F  0.13830919  0.76253806  0.72577057    -0.19700
C2083       C  0.18447355  0.97700866  0.81402828    -0.21100
C2084       C  0.18252357  0.96385258  0.78540498    -0.09100
C2085       C  0.18535900  0.98134807  0.75948525     0.29700
C2086       C  0.17887334  0.51505862  0.75991880    -0.21100
C2087       C  0.17751519  0.52351623  0.79052402    -0.09100
C2088       C  0.18032584  0.50211349  0.81292657     0.29700
F2089       F  0.18007294  0.50954908  0.84273640    -0.19700
H2090       H  0.18178001  0.96415675  0.83428149     0.18100
H2091       H  0.17692965  0.53107399  0.74222561     0.18100
F2092       F  0.18313721  0.96940854  0.73141497    -0.19700
C2093       C  0.26926226  0.64689972  0.86309427    -0.21100
C2094       C  0.28268724  0.61920124  0.86113565    -0.09100
C2095       C  0.26360012  0.59502084  0.86182381     0.29700
C2096       C  0.23173847  0.59868129  0.86175042    -0.21100
C2097       C  0.21839306  0.62644397  0.86080536    -0.09100
C2098       C  0.23743880  0.65055564  0.86278278     0.29700
F2099       F  0.22548238  0.67759766  0.86039428    -0.19700
H2100       H  0.28347292  0.66584491  0.86149531     0.18100
H2101       H  0.21755831  0.57980967  0.85912623     0.18100
F2102       F  0.27563825  0.56804036  0.85859955    -0.19700
C2103       C  0.26258244  0.90176662  0.70567615    -0.21100
C2104       C  0.28490904  0.88054996  0.71163029    -0.09100
C2105       C  0.27537304  0.85173369  0.71467397     0.29700
C2106       C  0.24427954  0.84474847  0.71449262    -0.21100
C2107       C  0.22170525  0.86618908  0.71102463    -0.09100
C2108       C  0.23129590  0.89465604  0.70512503     0.29700
F2109       F  0.21029503  0.91622759  0.70263441    -0.19700
H2110       H  0.26906929  0.92422299  0.70424186     0.18100
H2111       H  0.23770928  0.82293811  0.72017181     0.18100
F2112       F  0.29598911  0.83074605  0.72152149    -0.19700
C2113       C  0.32334781  0.74645217  0.81486061    -0.21100
C2114       C  0.32796659  0.72484865  0.79266968    -0.09100
C2115       C  0.32888148  0.73298124  0.76201311     0.29700
C2116       C  0.32946450  0.76223050  0.75425143    -0.21100
C2117       C  0.32889995  0.78384698  0.77679431    -0.09100
C2118       C  0.32345128  0.77575684  0.80701925     0.29700
F2119       F  0.32265638  0.79591650  0.82949351    -0.19700
H2120       H  0.32260581  0.74073464  0.83862112     0.18100
H2121       H  0.33363580  0.76790884  0.73081248     0.18100
F2122       F  0.33384407  0.71294915  0.73988404    -0.19700
C2123       C  0.36162129  0.51286027  0.81471515    -0.21100
C2124       C  0.35683255  0.53344108  0.79152205    -0.09100
C2125       C  0.34836144  0.52315415  0.76280313     0.29700
C2126       C  0.36248772  0.99517554  0.76116443    -0.21100
C2127       C  0.36080554  0.97344900  0.78355490    -0.09100
C2128       C  0.35880755  0.98230409  0.81401988     0.29700
F2129       F  0.35698826  0.96256520  0.83654482    -0.19700
H2130       H  0.36743646  0.51972867  0.83743552     0.18100
H2131       H  0.36395124  0.98936226  0.73738930     0.18100
F2132       F  0.34213621  0.54180771  0.74002092    -0.19700
C2133       C  0.51685727  0.59209272  0.78185499    -0.21100
C2134       C  0.53451829  0.61739582  0.77972688    -0.09100
C2135       C  0.52469162  0.64159376  0.79712255     0.29700
C2136       C  0.49815899  0.64098601  0.81464467    -0.21100
C2137       C  0.47890135  0.61692729  0.81494545    -0.09100
C2138       C  0.48913188  0.59189938  0.79901474     0.29700
F2139       F  0.47186358  0.56776768  0.79887438    -0.19700
H2140       H  0.52376698  0.57292437  0.76931397     0.18100
H2141       H  0.49188947  0.66051719  0.82692467     0.18100
F2142       F  0.54063437  0.66657531  0.79732497    -0.19700
C2143       C  0.76355612  0.65561061  0.69785269    -0.21100
C2144       C  0.78454912  0.63254375  0.69927885    -0.09100
C2145       C  0.77313107  0.60419748  0.69752258     0.29700
C2146       C  0.74158933  0.59916099  0.69895209    -0.21100
C2147       C  0.72067907  0.62222032  0.70159546    -0.09100
C2148       C  0.73191756  0.65055077  0.69885626     0.29700
F2149       F  0.71258619  0.67348716  0.70188480    -0.19700
H2150       H  0.77154233  0.67758624  0.70001718     0.18100
H2151       H  0.73378974  0.57721231  0.70182584     0.18100
F2152       F  0.79256960  0.58127626  0.69960962    -0.19700
C2153       C  0.52646773  0.91273058  0.77386121    -0.21100
C2154       C  0.52952609  0.89748385  0.80136494    -0.09100
C2155       C  0.50370711  0.88355861  0.81289331     0.29700
C2156       C  0.47637706  0.88333842  0.79655857    -0.21100
C2157       C  0.47371017  0.89689244  0.76820801    -0.09100
C2158       C  0.49882555  0.91255398  0.75740264     0.29700
F2159       F  0.49767871  0.92527409  0.72981936    -0.19700
H2160       H  0.54629601  0.92274878  0.76384405     0.18100
H2161       H  0.45764141  0.87080590  0.80521770     0.18100
F2162       F  0.50592997  0.86734968  0.83833420    -0.19700
C2163       C  0.73380428  0.84749800  0.86799969    -0.21100
C2164       C  0.72163560  0.87577624  0.86786807    -0.09100
C2165       C  0.74187701  0.89891100  0.87147740     0.29700
C2166       C  0.77361089  0.89387803  0.87197816    -0.21100
C2167       C  0.78579511  0.86575798  0.86861197    -0.09100
C2168       C  0.76548916  0.84250068  0.86807602     0.29700
F2169       F  0.77625753  0.81522531  0.86349109    -0.19700
H2170       H  0.71890145  0.82934763  0.86405414     0.18100
H2171       H  0.78871304  0.91224704  0.87137167     0.18100
F2172       F  0.73128361  0.92652062  0.87007161    -0.19700
C2173       C  0.68657621  0.76535802  0.81427961    -0.21100
C2174       C  0.68419931  0.78124083  0.78734545    -0.09100
C2175       C  0.68594694  0.76648906  0.75946903     0.29700
C2176       C  0.68614016  0.73617801  0.75878131    -0.21100
C2177       C  0.68453264  0.72035384  0.78582859    -0.09100
C2178       C  0.68649252  0.73513307  0.81359577     0.29700
F2179       F  0.68401507  0.72053199  0.84006046    -0.16500
H2180       H  0.68454783  0.77632103  0.83598619     0.18100
H2181       H  0.68371791  0.72521190  0.73717505     0.18100
F2182       F  0.68259321  0.78115603  0.73313213    -0.19700
C2183       C  0.64648401  0.99116223  0.82127664    -0.21100
C2184       C  0.64852983  0.97071209  0.79752260    -0.09100
C2185       C  0.64982729  0.98085559  0.76755023     0.29700
C2186       C  0.64489610  0.52445458  0.81211587    -0.21100
C2187       C  0.65070486  0.53285624  0.78209189    -0.09100
C2188       C  0.65611832  0.51107789  0.76017406     0.29700
F2189       F  0.66232176  0.51813319  0.73098546    -0.19700
H2190       H  0.64542957  0.98402682  0.84458396     0.18100
H2191       H  0.64052657  0.54067885  0.82944419     0.18100
F2192       F  0.65122381  0.96205002  0.74384240    -0.19700
C2193       C  0.06062209  0.54100694  0.94388478    -0.21100
C2194       C  0.02972679  0.54589966  0.93599424    -0.09100
C2195       C  0.02392649  0.56741472  0.91403435     0.29700
C2196       C  0.04685880  0.58506406  0.90336016    -0.21100
C2197       C  0.07733322  0.57854970  0.90901052    -0.09100
C2198       C  0.08431787  0.55625698  0.92942387     0.29700
F2199       F  0.11375228  0.54816876  0.93399558    -0.19700
H2200       H  0.06676297  0.52322242  0.95847506     0.18100
H2201       H  0.04100425  0.60101705  0.88646245     0.18100
F2202       F  0.99764628  0.56823941  0.89821222    -0.19700
C2203       C  0.10236906  0.92168065  0.87318143    -0.21100
C2204       C  0.09143066  0.89843404  0.85619706    -0.09100
C2205       C  0.06110835  0.88987066  0.86018313     0.29700
C2206       C  0.04067983  0.90746924  0.87645172    -0.21100
C2207       C  0.05055433  0.93342522  0.88967230    -0.09100
C2208       C  0.08222794  0.93894419  0.89017140     0.29700
F2209       F  0.09375508  0.96171249  0.90563949    -0.19700
H2210       H  0.12582456  0.92846123  0.87056727     0.18100
H2211       H  0.01678223  0.90190049  0.87650363     0.18100
F2212       F  0.05060389  0.86626767  0.84537322    -0.19700
C2213       C  0.91202593  0.96252011  0.95152177    -0.21100
C2214       C  0.94315949  0.95692134  0.95611232    -0.09100
C2215       C  0.95215558  0.92762406  0.95550076     0.29700
C2216       C  0.93547717  0.90813519  0.93766370    -0.21100
C2217       C  0.90873457  0.91768870  0.92317164    -0.09100
C2218       C  0.89537759  0.94385108  0.93310697     0.29700
F2219       F  0.86780037  0.95262665  0.92258822    -0.19700
H2220       H  0.90160262  0.98252249  0.95896893     0.18100
H2221       H  0.94541758  0.88722314  0.93219721     0.18100
F2222       F  0.97967406  0.91935693  0.96662440    -0.19700
C2223       C  0.92121778  0.56777655  0.84996281    -0.21100
C2224       C  0.89857653  0.58940852  0.84937627    -0.09100
C2225       C  0.88816867  0.60162057  0.87700472     0.29700
C2226       C  0.89923720  0.59094833  0.90464389    -0.21100
C2227       C  0.92072144  0.56832716  0.90466452    -0.09100
C2228       C  0.93199063  0.55728810  0.87708126     0.29700
F2229       F  0.95252116  0.53516107  0.87644825    -0.19700
H2230       H  0.93014217  0.55808203  0.82928746     0.18100
H2231       H  0.89049850  0.59961319  0.92586249     0.18100
F2232       F  0.86662754  0.62286477  0.87738084    -0.19700
C2233       C  0.58740804  0.78225711  0.88418595    -0.21100
C2234       C  0.58925456  0.81136714  0.89266202    -0.09100
C2235       C  0.57797766  0.81945608  0.92163058     0.29700
C2236       C  0.56241500  0.79916513  0.93997455    -0.21100
C2237       C  0.55773293  0.77061636  0.92962860    -0.09100
C2238       C  0.57126559  0.76261203  0.90144773     0.29700
F2239       F  0.56493312  0.73703606  0.88777471    -0.19700
H2240       H  0.59605377  0.77498290  0.86233990     0.18100
H2241       H  0.55170602  0.80653499  0.96082196     0.18100
F2242       F  0.57974973  0.84728487  0.93116335    -0.19700
C2243       C  0.45628074  0.66598150  0.95255515    -0.21100
C2244       C  0.45470639  0.69625785  0.95385952    -0.09100
C2245       C  0.42544178  0.70866218  0.95050945     0.29700
C2246       C  0.40402495  0.69416820  0.93259345    -0.21100
C2247       C  0.41052543  0.66604424  0.92201102    -0.09100
C2248       C  0.43460089  0.65078160  0.93581619     0.29700
F2249       F  0.43945595  0.62227837  0.92999705    -0.19700
H2250       H  0.47501236  0.65430644  0.96249220     0.18100
H2251       H  0.38426925  0.70591294  0.92440718     0.18100
F2252       F  0.42010026  0.73664415  0.95848219    -0.19700
C2253       C  0.45229312  0.82164353  0.87953491    -0.21100
C2254       C  0.44673665  0.79165047  0.87822357    -0.09100
C2255       C  0.42138049  0.78192050  0.86176646     0.29700
C2256       C  0.40333023  0.80142423  0.84595712    -0.21100
C2257       C  0.41056582  0.83082557  0.84501845    -0.09100
C2258       C  0.43448619  0.84112471  0.86280448     0.29700
F2259       F  0.44190221  0.86948410  0.86236807    -0.19700
H2260       H  0.47100796  0.82999194  0.89267907     0.18100
H2261       H  0.38547037  0.79301256  0.83161732     0.18100
F2262       F  0.41549633  0.75338113  0.85836236    -0.19700
C2263       C  0.56017616  0.63835787  0.89322686    -0.21100
C2264       C  0.57488626  0.65512266  0.91533932    -0.09100
C2265       C  0.60692442  0.65746554  0.91374630     0.29700
C2266       C  0.62248244  0.64930379  0.88723200    -0.21100
C2267       C  0.60627109  0.63771075  0.86285932    -0.09100
C2268       C  0.57591553  0.62940950  0.86731265     0.29700
F2269       F  0.56068645  0.61517225  0.84524712    -0.19700
H2270       H  0.53588192  0.63484649  0.89396373     0.18100
H2271       H  0.64630013  0.65480003  0.88465788     0.18100
F2272       F  0.62256070  0.67057388  0.93632334    -0.19700
C2273       C  0.07521274  0.54485113  0.68946534    -0.21100
C2274       C  0.04350485  0.54625633  0.69470650    -0.09100
C2275       C  0.03177816  0.56724010  0.71498134     0.29700
C2276       C  0.05149227  0.58489340  0.73107305    -0.21100
C2277       C  0.08315535  0.58169127  0.72778484    -0.09100
C2278       C  0.09498216  0.56228955  0.70610222     0.29700
F2279       F  0.12555544  0.55795893  0.70345683    -0.19700
H2280       H  0.08480705  0.52940477  0.67346484     0.18100
H2281       H  0.04211357  0.59898806  0.74855145     0.18100
F2282       F  0.00153249  0.56887489  0.72154825    -0.19700
C2283       C  0.06139586  0.93894969  0.63009103    -0.21100
C2284       C  0.06333450  0.96867800  0.63727640    -0.09100
C2285       C  0.08510044  0.97698116  0.65914007     0.29700
C2286       C  0.10420253  0.95692122  0.67234621    -0.21100
C2287       C  0.09850992  0.92740293  0.66935394    -0.09100
C2288       C  0.07814101  0.91830924  0.64670415     0.29700
F2289       F  0.07201465  0.88986664  0.64280430    -0.19700
H2290       H  0.04402231  0.93135975  0.61478069     0.18100
H2291       H  0.11985267  0.96482684  0.68932619     0.18100
F2292       F  0.08423882  0.00330576  0.67276382    -0.19700
C2293       C  0.95563870  0.56501305  0.62468094    -0.21100
C2294       C  0.94392200  0.53696631  0.62132064    -0.09100
C2295       C  0.91213833  0.53409563  0.62467906     0.29700
C2296       C  0.89611557  0.55390161  0.64298805    -0.21100
C2297       C  0.91098196  0.57833445  0.65433673    -0.09100
C2298       C  0.93947913  0.58556755  0.64201938     0.29700
F2299       F  0.95383103  0.60996054  0.65103493    -0.19700
H2300       H  0.97927541  0.56918177  0.61914226     0.18100
H2301       H  0.87290424  0.54931011  0.64980412     0.18100
F2302       F  0.89672320  0.51258309  0.61081336    -0.19700
C2303       C  0.90729796  0.93305602  0.71453977    -0.21100
C2304       C  0.92034852  0.91161211  0.73265106    -0.09100
C2305       C  0.95192872  0.90679195  0.73117654     0.29700
C2306       C  0.97062759  0.92573036  0.71530500    -0.21100
C2307       C  0.95801887  0.94940230  0.69980154    -0.09100
C2308       C  0.92584188  0.95163797  0.69787228     0.29700
F2309       F  0.91204027  0.97209598  0.68076482    -0.19700
H2310       H  0.88291748  0.93711092  0.71542284     0.18100
H2311       H  0.99508636  0.92274799  0.71667531     0.18100
F2312       F  0.96481267  0.88518285  0.74737577    -0.19700
C2313       C  0.56629484  0.70031363  0.63316089    -0.21100
C2314       C  0.56317087  0.72964138  0.64167040    -0.09100
C2315       C  0.57818550  0.73861388  0.66851118     0.29700
C2316       C  0.59552588  0.71962635  0.68545502    -0.21100
C2317       C  0.59609204  0.69001991  0.67900833    -0.09100
C2318       C  0.58211391  0.68050659  0.65194684     0.29700
F2319       F  0.58185055  0.65199454  0.64472288    -0.19700
H2320       H  0.55395455  0.69216352  0.61380278     0.18100
H2321       H  0.60552413  0.72802229  0.70605629     0.18100
F2322       F  0.57211771  0.76460595  0.68177018    -0.19700
C2323       C  0.46296661  0.83698836  0.62212003    -0.21100
C2324       C  0.46051307  0.80674861  0.62141497    -0.09100
C2325       C  0.43108973  0.79572534  0.62601326     0.29700
C2326       C  0.41017953  0.81168664  0.64372690    -0.21100
C2327       C  0.41750899  0.83973539  0.65355558    -0.09100
C2328       C  0.44227420  0.85345858  0.63950289     0.29700
F2329       F  0.44856284  0.88157406  0.64539845    -0.19700
H2330       H  0.48145392  0.84767635  0.61090271     0.18100
H2331       H  0.38991333  0.80117761  0.65218284     0.18100
F2332       F  0.42466626  0.76802169  0.61833113    -0.19700
C2333       C  0.56807093  0.86297121  0.67408505    -0.21100
C2334       C  0.58238132  0.84410220  0.65309091    -0.09100
C2335       C  0.61429663  0.83988637  0.65527235     0.29700
C2336       C  0.62971223  0.84905881  0.68124641    -0.21100
C2337       C  0.61366441  0.86342706  0.70443970    -0.09100
C2338       C  0.58353085  0.87232528  0.69964820     0.29700
F2339       F  0.56785323  0.88686861  0.72163108    -0.19700
H2340       H  0.54400008  0.86784680  0.67317849     0.18100
H2341       H  0.65322436  0.84245948  0.68452469     0.18100
F2342       F  0.62998127  0.82456701  0.63386747    -0.19700
C2343       C  0.46849055  0.68991644  0.71677300    -0.21100
C2344       C  0.45462654  0.70786242  0.69524404    -0.09100
C2345       C  0.42306833  0.70482083  0.68989242     0.29700
C2346       C  0.40563986  0.68594886  0.70768912    -0.21100
C2347       C  0.41946409  0.66973122  0.73070472    -0.09100
C2348       C  0.45120705  0.67111570  0.73422444     0.29700
F2349       F  0.46511661  0.65611641  0.75661182    -0.19700
H2350       H  0.49263543  0.69159847  0.72134822     0.18100
H2351       H  0.38111213  0.68561152  0.70498349     0.18100
F2352       F  0.40893938  0.72035380  0.66802186    -0.19700
loop_ 
_geom_bond_atom_site_label_1 
_geom_bond_atom_site_label_2 
_geom_bond_distance 
_geom_bond_site_symmetry_2 
_ccdc_geom_bond_type 
C1            C3   1.545       .  S
C1            C5   1.555       .  S
C1            C4   1.542       .  S
C1          C560   1.539       .  S
C2            C6   1.533       .  S
C2            C8   1.529       .  S
C2            C7   1.544       .  S
C2          C550   1.534       .  S
C3           C11   1.391       .  A
C3            C6   1.387       .  A
C4           C15   1.368       .  A
C4            C7   1.427       .  A
C5           C19   1.390       .  A
C5            C8   1.387       .  A
C6            C9   1.381       .  A
C7           C13   1.391       .  A
C8           C16   1.369       .  A
C9           N10   1.351       .  A
C9           H22   1.082       .  S
N10          C11   1.356       .  A
N10         C580   1.451       .  S
C11          H12   1.076       .  S
C13          N14   1.355       .  A
C13          H23   1.082       .  S
N14          C15   1.344       .  A
N14          N60   1.401       .  S
C15          H21   1.082       .  S
C16          N17   1.353       .  A
C16          H18   1.082       .  S
N17          C19   1.362       .  A
N17         C570   1.444       .  S
C19          H20   1.075       .  S
C24          C28   1.536       .  S
C24          C27   1.545       .  S
C24         C530   1.545       .  S
C24        C1202   1.552   1_545  S
C25          C29   1.553       .  S
C25          C30   1.534   1_655  S
C25         C520   1.539   1_655  S
C25        C1207   1.532       .  S
C26        C1200   1.549       .  S
C26          C34   1.387       .  A
C26          C29   1.409       .  A
C27          C38   1.378       .  A
C27        C1206   1.420   1_645  A
C28          C42   1.385       .  A
C28          C31   1.391   1_645  A
C29          C32   1.378       .  A
C30          C36   1.381       .  A
C30        C1203   1.423   1_455  A
C31        C1201   1.530       .  S
C31          C39   1.382   1_565  A
C32          N33   1.348       .  A
C32          H45   1.081       .  S
N33          C34   1.352       .  A
N33         C543   1.429       .  S
C34          H35   1.081       .  S
C36        N1213   1.346       .  A
C36          H46   1.082       .  S
N37          C38   1.349   1_455  A
N37        C1212   1.345   1_545  A
N37          N83   1.397       .  S
C38          H44   1.082       .  S
C39          N40   1.348       .  A
C39          H41   1.085   1_545  S
N40          C42   1.347   1_455  A
N40         C510   1.433       .  S
C42          H43   1.071       .  S
C47          C49   1.541       .  S
C47          C51   1.554       .  S
C47         C480   1.548       .  S
C47         C638   1.539       .  S
C48          C52   1.528       .  S
C48          C54   1.531       .  S
C48         C473   1.541       .  S
C48         C641   1.554       .  S
C49          C57   1.383       .  A
C49          C52   1.382       .  A
C50         C635   1.538       .  S
C50          C61   1.368   1_556  A
C50          C53   1.432       .  A
C51          C65   1.388       .  A
C51          C54   1.390       .  A
C52          C55   1.383       .  A
C53         C636   1.553       .  S
C53          C59   1.391   1_556  A
C54          C62   1.369       .  A
C55          N56   1.352       .  A
C55          H68   1.081       .  S
N56          C57   1.354       .  A
N56         C490   1.445       .  S
C57          H58   1.073       .  S
C59          N60   1.357       .  A
C59          H69   1.082       .  S
N60          C61   1.344       .  A
C61          H67   1.082       .  S
C62          N63   1.354       .  A
C62          H64   1.083       .  S
N63          C65   1.361       .  A
N63         C500   1.442       .  S
C65          H66   1.066       .  S
C70          C74   1.535       .  S
C70         C450   1.547       .  S
C70        C1248   1.553       .  S
C70         C661   1.544       .  S
C71          C75   1.551   1_455  S
C71         C430   1.540       .  S
C71        C1253   1.534   1_545  S
C71         C664   1.541   1_545  S
C72        C1246   1.550   1_545  S
C72          C80   1.387       .  A
C72          C75   1.405       .  A
C73         C658   1.550       .  S
C73          C84   1.384       .  A
C73        C1252   1.423   1_655  A
C74          C88   1.380       .  A
C74          C77   1.393       .  A
C75          C78   1.382       .  A
C76         C659   1.531       .  S
C76          C82   1.377       .  A
C76        C1249   1.428   1_445  A
C77        C1247   1.532       .  S
C77          C85   1.384   1_655  A
C78          N79   1.345       .  A
C78          H91   1.082       .  S
N79          C80   1.351       .  A
N79         C463   1.434       .  S
C80          H81   1.080       .  S
C82          N83   1.347   1_556  A
C82          H92   1.082   1_556  S
N83        C1260   1.350   1_445  A
C84        N1259   1.351   1_656  A
C84          H90   1.082   1_556  S
C85          N86   1.349       .  A
C85          H87   1.081       .  S
N86          C88   1.346   1_455  A
N86         C443   1.434       .  S
C88          H89   1.078       .  S
Fe93        O109   2.036       .  S
Fe93         O99   2.063       .  S
Fe93        O106   2.062       .  S
Fe93         O98   2.030       .  S
Fe93        O104   1.936       .  S
Fe94         O97   2.064       .  S
Fe94        O101   2.165       .  S
Fe94        O105   2.087       .  S
Fe94        O110   2.152       .  S
Fe94        O104   1.956       .  S
Fe95        O113   2.103       .  S
Fe95        O100   2.030       .  S
Fe95        O107   2.058       .  S
Fe95         O96   2.133       .  S
Fe95        O104   1.966       .  S
O96         C103   1.280       .  A
O97         C111   1.268       .  A
O98         C103   1.264       .  A
O99         C102   1.267       .  A
O100        C112   1.267       .  A
O101        C114   1.294       .  A
C102        O107   1.263       .  A
C102        C573   1.458       .  S
C103        C410   1.481       .  S
O105        C108   1.266       .  A
O106        C108   1.267       .  A
C108        C470   1.493       .  S
O109        C114   1.267       .  A
O110        C112   1.290       .  A
C111        O113   1.274       .  A
C111        C420   1.494       .  S
C112        C400   1.489       .  S
C114        C390   1.495       .  S
Fe115       O131   2.054       .  S
Fe115       O121   2.039       .  S
Fe115       O128   2.042       .  S
Fe115       O120   2.055       .  S
Fe115       O126   1.926       .  S
Fe116       O119   2.082       .  S
Fe116       O123   2.163       .  S
Fe116       O127   2.123       .  S
Fe116       O132   2.133       .  S
Fe116       O126   1.936       .  S
Fe117       O135   2.092       .  S
Fe117       O122   2.057       .  S
Fe117       O129   2.085       .  S
Fe117       O118   2.103       .  S
Fe117       O126   1.940       .  S
O118        C125   1.271       .  A
O119        C133   1.273       .  A
O120        C125   1.263       .  A
O121        C124   1.270       .  A
O122        C134   1.270       .  A
O123        C136   1.281       .  A
C124        O129   1.274       .  A
C124        C503   1.461       .  S
C125        C413   1.479       .  S
O127        C130   1.281       .  A
O128        C130   1.273       .  A
C130        C553   1.494       .  S
O131        C136   1.258       .  A
O132        C134   1.287       .  A
C133        O135   1.276       .  A
C133        C423   1.495       .  S
C134        C383   1.491       .  S
C136        C370   1.519       .  S
Fe137       O153   2.077       .  S
Fe137       O143   2.026       .  S
Fe137       O150   2.042       .  S
Fe137       O142   2.046       .  S
Fe137       O148   1.934       .  S
Fe138       O141   2.026       .  S
Fe138       O145   2.137       .  S
Fe138       O149   2.064       .  S
Fe138       O154   2.131       .  S
Fe138       O148   1.949       .  S
Fe139       O157   2.114       .  S
Fe139       O144   2.075       .  S
Fe139       O151   2.083       .  S
Fe139       O140   2.117       .  S
Fe139       O148   1.962       .  S
O140        C147   1.279       .  A
O141        C155   1.254       .  A
O142        C147   1.266       .  A
O143        C146   1.262       .  A
O144        C156   1.281       .  A
O145        C158   1.293       .  A
C146        O151   1.271       .  A
C146        C493   1.462       .  S
C147        C353   1.487       .  S
O149        C152   1.257       .  A
O150        C152   1.254       .  A
C152        C563   1.476       .  S
O153        C158   1.281       .  A
O154        C156   1.295       .  A
C155        O157   1.272       .  A
C155        C363   1.499       .  S
C156        C340   1.490       .  S
C158        C393   1.508       .  S
Fe159       O175   2.088       .  S
Fe159       O165   2.046       .  S
Fe159       O172   2.063       .  S
Fe159       O164   2.051       .  S
Fe159       O170   1.936       .  S
Fe160       O163   2.033       .  S
Fe160       O167   2.128       .  S
Fe160       O171   2.080       .  S
Fe160       O176   2.125       .  S
Fe160       O170   1.944       .  S
Fe161       O179   2.119       .  S
Fe161       O166   2.080       .  S
Fe161       O173   2.088       .  S
Fe161       O162   2.100       .  S
Fe161       O170   1.957       .  S
O162        C169   1.273       .  A
O163        C177   1.255       .  A
O164        C169   1.264       .  A
O165        C168   1.269       .  A
O166        C178   1.284       .  A
O167        C180   1.288       .  A
C168        O173   1.279       .  A
C168        C583   1.466       .  S
C169        C350   1.486       .  S
O171        C174   1.261       .  A
O172        C174   1.257       .  A
C174        C483   1.486       .  S
O175        C180   1.281       .  A
O176        C178   1.296       .  A
C177        O179   1.273       .  A
C177        C360   1.507       .  S
C178        C330   1.486       .  S
C180        C373   1.515       .  S
Fe181       O197   2.102       .  S
Fe181       O187   2.025       .  S
Fe181       O194   2.052       .  S
Fe181       O186   2.040       .  S
Fe181       O192   1.918       .  S
Fe182       O185   2.055       .  S
Fe182       O189   2.115       .  S
Fe182       O193   2.099       .  S
Fe182       O198   2.114       .  S
Fe182       O192   1.938       .  S
Fe183       O201   2.114       .  S
Fe183       O188   2.093       .  S
Fe183       O195   2.091       .  S
Fe183       O184   2.099       .  S
Fe183       O192   1.936       .  S
O184        C191   1.275       .  A
O185        C199   1.258       .  A
O186        C191   1.265       .  A
O187        C190   1.265       .  A
O188        C200   1.287       .  A
O189        C202   1.290       .  A
C190        O195   1.277       .  A
C190        C440   1.462       .  S
C191        C320   1.478       .  S
O193        C196   1.261       .  A
O194        C196   1.249       .  A
C196        C523   1.474       .  S
O197        C202   1.285       .  A
O198        C200   1.296       .  A
C199        O201   1.272       .  A
C199        C310   1.502       .  S
C200        C343   1.488       .  S
C202        C300   1.502       .  S
Fe203       O219   2.092       .  S
Fe203       O209   2.041       .  S
Fe203       O216   2.066       .  S
Fe203       O208   2.041       .  S
Fe203       O214   1.926       .  S
Fe204       O207   2.041       .  S
Fe204       O211   2.124       .  S
Fe204       O215   2.094       .  S
Fe204       O220   2.119       .  S
Fe204       O214   1.939       .  S
Fe205       O223   2.116       .  S
Fe205       O210   2.085       .  S
Fe205       O217   2.082       .  S
Fe205       O206   2.104       .  S
Fe205       O214   1.942       .  S
O206        C213   1.275       .  A
O207        C221   1.255       .  A
O208        C213   1.263       .  A
O209        C212   1.269       .  A
O210        C222   1.286       .  A
O211        C224   1.289       .  A
C212        O217   1.276       .  A
C212        C513   1.461       .  S
C213        C323   1.482       .  S
O215        C218   1.262       .  A
O216        C218   1.253       .  A
C218        C433   1.478       .  S
O219        C224   1.282       .  A
O220        C222   1.297       .  A
C221        O223   1.272       .  A
C221        C313   1.506       .  S
C222        C333   1.484       .  S
C224        C293   1.513       .  S
Fe225       O241   2.066       .  S
Fe225       O231   2.052       .  S
Fe225       O238   2.055       .  S
Fe225       O230   2.052       .  S
Fe225       O236   1.942       .  S
Fe226       O229   2.026       .  S
Fe226       O233   2.146       .  S
Fe226       O237   2.073       .  S
Fe226       O242   2.142       .  S
Fe226       O236   1.960       .  S
Fe227       O245   2.099       .  S
Fe227       O232   2.053       .  S
Fe227       O239   2.066       .  S
Fe227       O228   2.104       .  S
Fe227       O236   1.971       .  S
O228        C235   1.274       .  A
O229        C243   1.255       .  A
O230        C235   1.265       .  A
O231        C234   1.269       .  A
O232        C244   1.277       .  A
O233        C246   1.292       .  A
C234        O239   1.271       .  A
C234        C540   1.479       .  S
C235        C280   1.482       .  S
O237        C240   1.259       .  A
O238        C240   1.260       .  A
C240        C453   1.478       .  S
O241        C246   1.277       .  A
O242        C244   1.295       .  A
C243        O245   1.269       .  A
C243        C273   1.491       .  S
C244        C403   1.486       .  S
C246        C303   1.509       .  S
Fe247       O263   2.074       .  S
Fe247       O253   2.065       .  S
Fe247       O260   2.055       .  S
Fe247       O252   2.042       .  S
Fe247       O258   1.938       .  S
Fe248       O251   2.033       .  S
Fe248       O255   2.146       .  S
Fe248       O259   2.084       .  S
Fe248       O264   2.146       .  S
Fe248       O258   1.949       .  S
Fe249       O267   2.089       .  S
Fe249       O254   2.065       .  S
Fe249       O261   2.065       .  S
Fe249       O250   2.096       .  S
Fe249       O258   1.960       .  S
O250        C257   1.271       .  A
O251        C265   1.254       .  A
O252        C257   1.261       .  A
O253        C256   1.274       .  A
O254        C266   1.281       .  A
O255        C268   1.292       .  A
C256        O261   1.272       .  A
C256        C460   1.480       .  S
C257        C283   1.480       .  S
O259        C262   1.261       .  A
O260        C262   1.259       .  A
C262        C533   1.481       .  S
O263        C268   1.277       .  A
O264        C266   1.300       .  A
C265        O267   1.266       .  A
C265        C270   1.485       .  S
C266        C380   1.490       .  S
C268        C290   1.513       .  S
C269        C270   1.399       .  A
C269        C274   1.400       .  A
C269        H276   1.083       .  S
C270        C271   1.414       .  A
C271        C272   1.403       .  A
C271        F278   1.358       .  S
C272        C273   1.402       .  A
C272        H277   1.083       .  S
C273        C274   1.417       .  A
C274        F275   1.358       .  S
C279        C280   1.404       .  A
C279       C1460   1.404       .  A
C279        H286   1.083       .  S
C280        C281   1.408       .  A
C281       C1458   1.399       .  A
C281        F288   1.358       .  S
C282        C283   1.406       .  A
C282       C1457   1.401   1_545  A
C282        H287   1.083       .  S
C283        C284   1.407       .  A
C284       C1455   1.400   1_545  A
C284        F285   1.358       .  S
C289        C290   1.409       .  A
C289        C294   1.398   1_655  A
C289        H296   1.082       .  S
C290        C291   1.413       .  A
C291        C292   1.426   1_655  A
C291        F298   1.356       .  S
C292        C293   1.418       .  A
C292        H297   1.083       .  S
C293        C294   1.409       .  A
C294        F295   1.357       .  S
C299        C300   1.401   1_655  A
C299        C304   1.397       .  A
C299        H306   1.083       .  S
C300        C301   1.418       .  A
C301        C302   1.424   1_455  A
C301        F308   1.356       .  S
C302        C303   1.410       .  A
C302        H307   1.082       .  S
C303        C304   1.413       .  A
C304        F305   1.354       .  S
C309        C310   1.401       .  A
C309        C314   1.406       .  A
C309        H316   1.083       .  S
C310        C311   1.418       .  A
C311        C312   1.407       .  A
C311        F318   1.357       .  S
C312        C313   1.403       .  A
C312        H317   1.083       .  S
C313        C314   1.421       .  A
C314        F315   1.358       .  S
C319        C320   1.402       .  A
C319       C1500   1.399       .  A
C319        H326   1.084       .  S
C320        C321   1.409       .  A
C321       C1498   1.402       .  A
C321        F328   1.358       .  S
C322        C323   1.403       .  A
C322       C1497   1.401   1_545  A
C322        H327   1.084       .  S
C323        C324   1.410       .  A
C324       C1495   1.402   1_545  A
C324        F325   1.358       .  S
C329        C330   1.408       .  A
C329        C334   1.405       .  A
C329        H336   1.084       .  S
C330        C331   1.406       .  A
C331        C332   1.409       .  A
C331        F338   1.357       .  S
C332        C333   1.409       .  A
C332        H337   1.084       .  S
C333        C334   1.405       .  A
C334        F335   1.358       .  S
C339        C340   1.405       .  A
C339        C344   1.409       .  A
C339        H346   1.083       .  S
C340        C341   1.411       .  A
C341        C342   1.407       .  A
C341        F348   1.358       .  S
C342        C343   1.403       .  A
C342        H347   1.083       .  S
C343        C344   1.411       .  A
C344        F345   1.358       .  S
C349        C350   1.407       .  A
C349        C354   1.403       .  A
C349        H356   1.083       .  S
C350        C351   1.407       .  A
C351        C352   1.402       .  A
C351        F358   1.357       .  S
C352        C353   1.408       .  A
C352        H357   1.083       .  S
C353        C354   1.408       .  A
C354        F355   1.357       .  S
C359        C360   1.418       .  A
C359       C1540   1.406   1_545  A
C359        H366   1.083       .  S
C360        C361   1.406       .  A
C361       C1538   1.408   1_545  A
C361        F368   1.357       .  S
C362        C363   1.417       .  A
C362       C1537   1.405       .  A
C362        H367   1.083       .  S
C363        C364   1.402       .  A
C364       C1535   1.404       .  A
C364        F365   1.357       .  S
C369        C370   1.415       .  A
C369        C374   1.429       .  A
C369        H376   1.082       .  S
C370        C371   1.416       .  A
C371        C372   1.396       .  A
C371        F378   1.357       .  S
C372        C373   1.404       .  A
C372        H377   1.084       .  S
C373        C374   1.419       .  A
C374        F375   1.356       .  S
C379        C380   1.406       .  A
C379        C384   1.410       .  A
C379        H386   1.083       .  S
C380        C381   1.410       .  A
C381        C382   1.410       .  A
C381        F388   1.357       .  S
C382        C383   1.405       .  A
C382        H387   1.083       .  S
C383        C384   1.412       .  A
C384        F385   1.358       .  S
C389        C390   1.416       .  A
C389        C394   1.421       .  A
C389        H396   1.083       .  S
C390        C391   1.403       .  A
C391        C392   1.402       .  A
C391        F398   1.358       .  S
C392        C393   1.411       .  A
C392        H397   1.083       .  S
C393        C394   1.410       .  A
C394        F395   1.356       .  S
C399        C400   1.411       .  A
C399        C404   1.407       .  A
C399        H406   1.084       .  S
C400        C401   1.405       .  A
C401        C402   1.409       .  A
C401        F408   1.357       .  S
C402        C403   1.410       .  A
C402        H407   1.084       .  S
C403        C404   1.406       .  A
C404        F405   1.358       .  S
C409        C410   1.405       .  A
C409        C414   1.398       .  A
C409        H416   1.084       .  S
C410        C411   1.407       .  A
C411        C412   1.409       .  A
C411        F418   1.358       .  S
C412        C413   1.409       .  A
C412        H417   1.083       .  S
C413        C414   1.403       .  A
C414        F415   1.357       .  S
C419        C420   1.409       .  A
C419       C1600   1.411       .  A
C419        H426   1.083       .  S
C420        C421   1.409       .  A
C421       C1598   1.399       .  A
C421        F428   1.358       .  S
C422        C423   1.407       .  A
C422       C1597   1.408   1_545  A
C422        H427   1.083       .  S
C423        C424   1.411       .  A
C424       C1595   1.402   1_545  A
C424        F425   1.357       .  S
C429        C430   1.415       .  A
C429        C434   1.421       .  A
C429        H436   1.081       .  S
C430        C431   1.417       .  A
C431        C432   1.377       .  A
C431        F438   1.358       .  S
C432        C433   1.387       .  A
C432        H437   1.078       .  S
C433        C434   1.412       .  A
C434        F435   1.357       .  S
C439        C440   1.402       .  A
C439        C444   1.402       .  A
C439        H446   1.083       .  S
C440        C441   1.404       .  A
C441        C442   1.386       .  A
C441        F448   1.354       .  S
C442        C443   1.399       .  A
C442        H447   1.083   1_455  S
C443        C444   1.411       .  A
C444        F445   1.357       .  S
C449        C450   1.406       .  A
C449        C454   1.400       .  A
C449        H456   1.077       .  S
C450        C451   1.414       .  A
C451        C452   1.407       .  A
C451        F458   1.358       .  S
C452        C453   1.404       .  A
C452        H457   1.083       .  S
C453        C454   1.403       .  A
C454        F455   1.357       .  S
C459        C460   1.404       .  A
C459        C464   1.385       .  A
C459        H466   1.083       .  S
C460        C461   1.411       .  A
C461        C462   1.405       .  A
C461        F468   1.357       .  S
C462        C463   1.402       .  A
C462        H467   1.083       .  S
C463        C464   1.405       .  A
C464        F465   1.358       .  S
C469        C470   1.396       .  A
C469        C474   1.385       .  A
C469        H476   1.084       .  S
C470        C471   1.414       .  A
C471        C472   1.420       .  A
C471        F478   1.357       .  S
C472        C473   1.413       .  A
C472        H477   1.082       .  S
C473        C474   1.420       .  A
C474        F475   1.357       .  S
C479        C480   1.404       .  A
C479        C484   1.400       .  A
C479        H486   1.066       .  S
C480        C481   1.409       .  A
C481        C482   1.407       .  A
C481        F488   1.358       .  S
C482        C483   1.408       .  A
C482        H487   1.082       .  S
C483        C484   1.408       .  A
C484        F485   1.357       .  S
C489        C490   1.414       .  A
C489        C494   1.405       .  A
C489        H496   1.082       .  S
C490        C491   1.408       .  A
C491        C492   1.385       .  A
C491        F498   1.356       .  S
C492        C493   1.401       .  A
C492        H497   1.083       .  S
C493        C494   1.401       .  A
C494        F495   1.357       .  S
C499        C500   1.407       .  A
C499        C504   1.389       .  A
C499        H506   1.080       .  S
C500        C501   1.411       .  A
C501        C502   1.396       .  A
C501        F508   1.357       .  S
C502        C503   1.400       .  A
C502        H507   1.084       .  S
C503        C504   1.401       .  A
C504        F505   1.358       .  S
C509        C510   1.407       .  A
C509        C514   1.399       .  A
C509        H516   1.082       .  S
C510        C511   1.403       .  A
C511        C512   1.392       .  A
C511        F518   1.357   1_455  S
C512        C513   1.403       .  A
C512        H517   1.083       .  S
C513        C514   1.402       .  A
C514        F515   1.357       .  S
C519        C520   1.414       .  A
C519        C524   1.412       .  A
C519        H526   1.080       .  S
C520        C521   1.417       .  A
C521        C522   1.386       .  A
C521        F528   1.355   1_455  S
C522        C523   1.393       .  A
C522        H527   1.081       .  S
C523        C524   1.406       .  A
C524        F525   1.356       .  S
C529        C530   1.410       .  A
C529        C534   1.406       .  A
C529        H536   1.083       .  S
C530        C531   1.407       .  A
C531        C532   1.400       .  A
C531        F538   1.355       .  S
C532        C533   1.404       .  A
C532        H537   1.083       .  S
C533        C534   1.407       .  A
C534        F535   1.357       .  S
C539        C540   1.407       .  A
C539        C544   1.380       .  A
C539        H546   1.083       .  S
C540        C541   1.411       .  A
C541        C542   1.406       .  A
C541        F548   1.357       .  S
C542        C543   1.403       .  A
C542        H547   1.082       .  S
C543        C544   1.399       .  A
C544        F545   1.358       .  S
C549        C550   1.409       .  A
C549        C554   1.415       .  A
C549        H556   1.082       .  S
C550        C551   1.419       .  A
C551        C552   1.383       .  A
C551        F558   1.358       .  S
C552        C553   1.399       .  A
C552        H557   1.083       .  S
C553        C554   1.414       .  A
C554        F555   1.356       .  S
C559        C560   1.404       .  A
C559        C564   1.398       .  A
C559        H566   1.073       .  S
C560        C561   1.409       .  A
C561        C562   1.400       .  A
C561        F568   1.358       .  S
C562        C563   1.406       .  A
C562        H567   1.083       .  S
C563        C564   1.405       .  A
C564        F565   1.357       .  S
C569        C570   1.407       .  A
C569        C574   1.391       .  A
C569        H576   1.080       .  S
C570        C571   1.413       .  A
C571        C572   1.398       .  A
C571        F578   1.357       .  S
C572        C573   1.398       .  A
C572        H577   1.084       .  S
C573        C574   1.400       .  A
C574        F575   1.356       .  S
C579        C580   1.409       .  A
C579        C584   1.396       .  A
C579        H586   1.081       .  S
C580        C581   1.416       .  A
C581        C582   1.401       .  A
C581        F588   1.355       .  S
C582        C583   1.400       .  A
C582        H587   1.083       .  S
C583        C584   1.402       .  A
C584        F585   1.357       .  S
C589        C591   1.548       .  S
C589        C593   1.552       .  S
C589        C592   1.539       .  S
C589       C1148   1.544       .  S
C590        C594   1.536       .  S
C590        C596   1.539       .  S
C590        C595   1.552       .  S
C590       C1138   1.539       .  S
C591        C599   1.395       .  A
C591        C594   1.383       .  A
C592        C603   1.370       .  A
C592        C595   1.429       .  A
C593        C607   1.383       .  A
C593        C596   1.387       .  A
C594        C597   1.385       .  A
C595        C601   1.393       .  A
C596        C604   1.378       .  A
C597        N598   1.352       .  A
C597        H610   1.081       .  S
N598        C599   1.358       .  A
N598       C1168   1.451       .  S
C599        H600   1.078       .  S
C601        N602   1.357       .  A
C601        H611   1.082       .  S
N602        C603   1.344       .  A
N602        N648   1.403       .  S
C603        H609   1.082       .  S
C604        N605   1.356       .  A
C604        H606   1.081       .  S
N605        C607   1.360       .  A
N605       C1158   1.447       .  S
C607        H608   1.074       .  S
C612       C1790   1.541       .  S
C612        C616   1.551   1_655  S
C612        C615   1.561       .  S
C612       C1118   1.543       .  S
C613        C617   1.547   1_455  S
C613       C1795   1.538       .  S
C613        C618   1.533       .  S
C613       C1108   1.533       .  S
C614       C1788   1.547       .  S
C614        C622   1.385       .  A
C614        C617   1.398       .  A
C615        C626   1.384       .  A
C615       C1794   1.424   1_645  A
C616        C630   1.393       .  A
C616        C619   1.388       .  A
C617        C620   1.378       .  A
C618       C1791   1.419   1_455  A
C618        C624   1.380       .  A
C619       C1789   1.543   1_545  S
C619        C627   1.367       .  A
C620        N621   1.353       .  A
C620        H633   1.080       .  S
N621        C622   1.357       .  A
N621       C1131   1.447       .  S
C622        H623   1.079       .  S
C624       N1801   1.348       .  A
C624        H634   1.083       .  S
N625       C1800   1.343   1_655  A
N625        C626   1.352   1_565  A
N625        N671   1.399       .  S
C626        H632   1.083       .  S
C627        N628   1.355       .  A
C627        H629   1.078       .  S
N628        C630   1.366       .  A
N628       C1098   1.455       .  S
C630        H631   1.077       .  S
C635        C637   1.540       .  S
C635        C639   1.550       .  S
C635       C1068   1.548       .  S
C636        C640   1.531       .  S
C636        C642   1.538       .  S
C636       C1061   1.547       .  S
C637        C645   1.382       .  A
C637        C640   1.383       .  A
C638        C649   1.369       .  A
C638        C641   1.433       .  A
C639        C653   1.385       .  A
C639        C642   1.388       .  A
C640        C643   1.384       .  A
C641        C647   1.394       .  A
C642        C650   1.372       .  A
C643        N644   1.351       .  A
C643        H656   1.082       .  S
N644        C645   1.354       .  A
N644       C1078   1.440       .  S
C645        H646   1.077       .  S
C647        N648   1.357       .  A
C647        H657   1.081       .  S
N648        C649   1.344       .  A
C649        H655   1.083       .  S
C650        N651   1.356       .  A
C650        H652   1.081       .  S
N651        C653   1.360       .  A
N651       C1088   1.444       .  S
C653        H654   1.075       .  S
C658       C1836   1.552       .  S
C658        C662   1.536       .  S
C658       C1038   1.550       .  S
C659        C663   1.521   1_455  S
C659       C1841   1.534   1_545  S
C659       C1018   1.526       .  S
C660       C1834   1.564   1_545  S
C660        C668   1.399       .  A
C660        C663   1.381       .  A
C661        C672   1.377       .  A
C661       C1840   1.414   1_655  A
C662        C676   1.383       .  A
C662        C665   1.390   1_655  A
C663        C666   1.365       .  A
C664       C1837   1.427   1_455  A
C664        C670   1.384   1_565  A
C665       C1835   1.531       .  S
C665        C673   1.385       .  A
C666        N667   1.349       .  A
C666        H679   1.080       .  S
N667        C668   1.364       .  A
N667       C1051   1.448       .  S
C668        H669   1.078       .  S
C670        N671   1.352   1_445  A
C670        H680   1.082       .  S
N671       C1848   1.344       .  A
C672       N1847   1.351   1_655  A
C672        H678   1.082       .  S
C673        N674   1.350       .  A
C673        H675   1.080       .  S
N674        C676   1.346   1_455  A
N674       C1031   1.440       .  S
C676        H677   1.076       .  S
Fe681       O697   2.039       .  S
Fe681       O687   2.041       .  S
Fe681       O694   2.041       .  S
Fe681       O686   2.038       .  S
Fe681       O692   1.960       .  S
Fe682       O685   2.076       .  S
Fe682       O689   2.154       .  S
Fe682       O693   2.114       .  S
Fe682       O698   2.138       .  S
Fe682       O692   1.989       .  S
Fe683       O701   2.094       .  S
Fe683       O688   2.040       .  S
Fe683       O695   2.062       .  S
Fe683       O684   2.118       .  S
Fe683       O692   1.989       .  S
O684        C691   1.277       .  A
O685        C699   1.269       .  A
O686        C691   1.264       .  A
O687        C690   1.264       .  A
O688        C700   1.267       .  A
O689        C702   1.289       .  A
C690        O695   1.263       .  A
C690       C1161   1.462       .  S
C691        C998   1.482       .  S
O693        C696   1.270       .  A
O694        C696   1.264       .  A
C696       C1058   1.504       .  S
O697        C702   1.265       .  A
O698        C700   1.287       .  A
C699        O701   1.274       .  A
C699       C1008   1.502       .  S
C700        C988   1.488       .  S
C702        C978   1.498       .  S
Fe703       O719   2.052       .  S
Fe703       O709   2.051       .  S
Fe703       O716   2.039       .  S
Fe703       O708   2.050       .  S
Fe703       O714   1.932       .  S
Fe704       O707   2.070       .  S
Fe704       O711   2.145       .  S
Fe704       O715   2.125       .  S
Fe704       O720   2.111       .  S
Fe704       O714   1.954       .  S
Fe705       O723   2.094       .  S
Fe705       O710   2.058       .  S
Fe705       O717   2.083       .  S
Fe705       O706   2.105       .  S
Fe705       O714   1.945       .  S
O706        C713   1.272       .  A
O707        C721   1.269       .  A
O708        C713   1.262       .  A
O709        C712   1.273       .  A
O710        C722   1.274       .  A
O711        C724   1.276       .  A
C712        O717   1.275       .  A
C712       C1091   1.465       .  S
C713       C1001   1.481       .  S
O715        C718   1.279       .  A
O716        C718   1.271       .  A
C718       C1141   1.496       .  S
O719        C724   1.258       .  A
O720        C722   1.285       .  A
C721        O723   1.274       .  A
C721       C1011   1.495       .  S
C722        C971   1.478       .  S
C724        C958   1.509       .  S
Fe725       O741   2.096       .  S
Fe725       O731   2.026       .  S
Fe725       O738   2.048       .  S
Fe725       O730   2.048       .  S
Fe725       O736   1.928       .  S
Fe726       O729   2.049       .  S
Fe726       O733   2.120       .  S
Fe726       O737   2.093       .  S
Fe726       O742   2.112       .  S
Fe726       O736   1.951       .  S
Fe727       O745   2.109       .  S
Fe727       O732   2.089       .  S
Fe727       O739   2.091       .  S
Fe727       O728   2.099       .  S
Fe727       O736   1.948       .  S
O728        C735   1.275       .  A
O729        C743   1.257       .  A
O730        C735   1.267       .  A
O731        C734   1.265       .  A
O732        C744   1.284       .  A
O733        C746   1.287       .  A
C734        O739   1.275       .  A
C734       C1081   1.463       .  S
C735        C941   1.481       .  S
O737        C740   1.263       .  A
O738        C740   1.254       .  A
C740       C1151   1.483       .  S
O741        C746   1.281       .  A
O742        C744   1.292       .  A
C743        O745   1.273       .  A
C743        C951   1.498       .  S
C744        C928   1.485       .  S
C746        C981   1.504       .  S
Fe747       O763   2.079       .  S
Fe747       O753   2.061       .  S
Fe747       O760   2.062       .  S
Fe747       O752   2.049       .  S
Fe747       O758   1.928       .  S
Fe748       O751   2.046       .  S
Fe748       O755   2.121       .  S
Fe748       O759   2.094       .  S
Fe748       O764   2.103       .  S
Fe748       O758   1.952       .  S
Fe749       O767   2.114       .  S
Fe749       O754   2.097       .  S
Fe749       O761   2.103       .  S
Fe749       O750   2.088       .  S
Fe749       O758   1.941       .  S
O750        C757   1.272       .  A
O751        C765   1.257       .  A
O752        C757   1.265       .  A
O753        C756   1.274       .  A
O754        C766   1.287       .  A
O755        C768   1.284       .  A
C756        O761   1.282       .  A
C756       C1171   1.484       .  S
C757        C938   1.479       .  S
O759        C762   1.266       .  A
O760        C762   1.260       .  A
C762       C1071   1.486       .  S
O763        C768   1.275       .  A
O764        C766   1.291       .  A
C765        O767   1.273       .  A
C765        C948   1.503       .  S
C766        C918   1.486       .  S
C768        C961   1.509       .  S
Fe769       O785   2.095       .  S
Fe769       O775   2.028       .  S
Fe769       O782   2.057       .  S
Fe769       O774   2.050       .  S
Fe769       O780   1.918       .  S
Fe770       O773   2.050       .  S
Fe770       O777   2.126       .  S
Fe770       O781   2.092       .  S
Fe770       O786   2.110       .  S
Fe770       O780   1.941       .  S
Fe771       O789   2.100       .  S
Fe771       O776   2.094       .  S
Fe771       O783   2.091       .  S
Fe771       O772   2.092       .  S
Fe771       O780   1.938       .  S
O772        C779   1.273       .  A
O773        C787   1.257       .  A
O774        C779   1.266       .  A
O775        C778   1.266       .  A
O776        C788   1.287       .  A
O777        C790   1.290       .  A
C778        O783   1.277       .  A
C778       C1028   1.462       .  S
C779        C908   1.480       .  S
O781        C784   1.262       .  A
O782        C784   1.252       .  A
C784       C1111   1.474       .  S
O785        C790   1.285       .  A
O786        C788   1.294       .  A
C787        O789   1.269       .  A
C787        C898   1.493       .  S
C788        C931   1.485       .  S
C790        C888   1.512       .  S
Fe791       O807   2.035       .  S
Fe791       O797   2.068       .  S
Fe791       O804   2.043       .  S
Fe791       O796   2.037       .  S
Fe791       O802   1.929       .  S
Fe792       O795   2.042       .  S
Fe792       O799   2.177       .  S
Fe792       O803   2.065       .  S
Fe792       O808   2.144       .  S
Fe792       O802   1.947       .  S
Fe793       O811   2.114       .  S
Fe793       O798   2.027       .  S
Fe793       O805   2.060       .  S
Fe793       O794   2.151       .  S
Fe793       O802   1.944       .  S
O794        C801   1.286       .  A
O795        C809   1.263       .  A
O796        C801   1.266       .  A
O797        C800   1.266       .  A
O798        C810   1.267       .  A
O799        C812   1.298       .  A
C800        O805   1.262       .  A
C800       C1101   1.459       .  S
C801        C911   1.487       .  S
O803        C806   1.258       .  A
O804        C806   1.263       .  A
C806       C1021   1.469       .  S
O807        C812   1.272       .  A
O808        C810   1.289       .  A
C809        O811   1.278       .  A
C809        C901   1.494       .  S
C810        C921   1.480       .  S
C812        C881   1.510       .  S
Fe813       O829   2.047       .  S
Fe813       O819   2.093       .  S
Fe813       O826   2.068       .  S
Fe813       O818   2.041       .  S
Fe813       O824   1.945       .  S
Fe814       O817   2.036       .  S
Fe814       O821   2.164       .  S
Fe814       O825   2.071       .  S
Fe814       O830   2.153       .  S
Fe814       O824   1.965       .  S
Fe815       O833   2.092       .  S
Fe815       O820   2.043       .  S
Fe815       O827   2.049       .  S
Fe815       O816   2.111       .  S
Fe815       O824   1.977       .  S
O816        C823   1.272       .  A
O817        C831   1.258       .  A
O818        C823   1.259       .  A
O819        C822   1.278       .  A
O820        C832   1.275       .  A
O821        C834   1.292       .  A
C822        O827   1.268       .  A
C822       C1128   1.463       .  S
C823        C868   1.483       .  S
O825        C828   1.261       .  A
O826        C828   1.265       .  A
C828       C1041   1.481       .  S
O829        C834   1.270       .  A
O830        C832   1.296       .  A
C831        O833   1.268       .  A
C831        C861   1.485       .  S
C832        C991   1.487       .  S
C834        C891   1.521       .  S
Fe835       O851   2.057       .  S
Fe835       O841   2.072       .  S
Fe835       O848   2.068       .  S
Fe835       O840   2.047       .  S
Fe835       O846   1.949       .  S
Fe836       O839   2.044       .  S
Fe836       O843   2.144       .  S
Fe836       O847   2.059       .  S
Fe836       O852   2.133       .  S
Fe836       O846   1.967       .  S
Fe837       O855   2.089       .  S
Fe837       O842   2.042       .  S
Fe837       O849   2.054       .  S
Fe837       O838   2.106       .  S
Fe837       O846   1.977       .  S
O838        C845   1.273       .  A
O839        C853   1.260       .  A
O840        C845   1.264       .  A
O841        C844   1.271       .  A
O842        C854   1.272       .  A
O843        C856   1.291       .  A
C844        O849   1.267       .  A
C844       C1048   1.460       .  S
C845        C871   1.478       .  S
O847        C850   1.260       .  A
O848        C850   1.264       .  A
C850       C1121   1.478       .  S
O851        C856   1.272       .  A
O852        C854   1.289       .  A
C853        O855   1.269       .  A
C853        C858   1.483       .  S
C854        C968   1.480       .  S
C856        C878   1.493       .  S
C857        C858   1.400       .  A
C857        C862   1.400       .  A
C857        H864   1.083       .  S
C858        C859   1.412       .  A
C859        C860   1.403       .  A
C859        F866   1.358       .  S
C860        C861   1.402       .  A
C860        H865   1.083       .  S
C861        C862   1.413       .  A
C862        F863   1.358       .  S
C867        C868   1.407       .  A
C867       C2048   1.404       .  A
C867        H874   1.084       .  S
C868        C869   1.405       .  A
C869       C2046   1.403       .  A
C869        F876   1.357       .  S
C870       C2045   1.400   1_545  A
C870        C871   1.405       .  A
C870        H875   1.083       .  S
C871        C872   1.407       .  A
C872       C2043   1.402   1_545  A
C872        F873   1.357       .  S
C877        C878   1.412       .  A
C877        C882   1.417   1_655  A
C877        H884   1.082       .  S
C878        C879   1.402       .  A
C879        C880   1.403   1_655  A
C879        F886   1.358       .  S
C880        C881   1.415       .  A
C880        H885   1.083       .  S
C881        C882   1.410       .  A
C882        F883   1.356       .  S
C887        C888   1.401       .  A
C887        C892   1.392   1_455  A
C887        H894   1.082       .  S
C888        C889   1.420       .  A
C889        C890   1.431   1_455  A
C889        F896   1.357       .  S
C890        C891   1.416       .  A
C890        H895   1.082       .  S
C891        C892   1.418       .  A
C892        F893   1.357       .  S
C897        C898   1.402       .  A
C897        C902   1.405       .  A
C897        H904   1.083       .  S
C898        C899   1.415       .  A
C899        C900   1.403       .  A
C899        F906   1.358       .  S
C900        C901   1.401       .  A
C900        H905   1.083       .  S
C901        C902   1.417       .  A
C902        F903   1.358       .  S
C907        C908   1.403       .  A
C907       C2088   1.400       .  A
C907        H914   1.083       .  S
C908        C909   1.409       .  A
C909       C2086   1.402       .  A
C909        F916   1.358       .  S
C910       C2085   1.406   1_545  A
C910        C911   1.403       .  A
C910        H915   1.083       .  S
C911        C912   1.411       .  A
C912       C2083   1.405   1_545  A
C912        F913   1.357       .  S
C917        C918   1.406       .  A
C917        C922   1.403       .  A
C917        H924   1.084       .  S
C918        C919   1.405       .  A
C919        C920   1.409       .  A
C919        F926   1.357       .  S
C920        C921   1.410       .  A
C920        H925   1.083       .  S
C921        C922   1.406       .  A
C922        F923   1.358       .  S
C927        C928   1.403       .  A
C927        C932   1.404       .  A
C927        H934   1.084       .  S
C928        C929   1.411       .  A
C929        C930   1.409       .  A
C929        F936   1.357       .  S
C930        C931   1.404       .  A
C930        H935   1.083       .  S
C931        C932   1.409       .  A
C932        F933   1.357       .  S
C937        C938   1.405       .  A
C937        C942   1.402       .  A
C937        H944   1.083       .  S
C938        C939   1.406       .  A
C939        C940   1.401       .  A
C939        F946   1.358       .  S
C940        C941   1.406       .  A
C940        H945   1.084       .  S
C941        C942   1.408       .  A
C942        F943   1.357       .  S
C947        C948   1.416       .  A
C947       C2128   1.405   1_545  A
C947        H954   1.083       .  S
C948        C949   1.405       .  A
C949       C2126   1.406   1_545  A
C949        F956   1.357       .  S
C950       C2125   1.408       .  A
C950        C951   1.417       .  A
C950        H955   1.083       .  S
C951        C952   1.402       .  A
C952       C2123   1.402       .  A
C952        F953   1.357       .  S
C957        C958   1.414       .  A
C957        C962   1.425       .  A
C957        H964   1.082       .  S
C958        C959   1.414       .  A
C959        C960   1.390       .  A
C959        F966   1.358       .  S
C960        C961   1.405       .  A
C960        H965   1.083       .  S
C961        C962   1.417       .  A
C962        F963   1.356       .  S
C967        C968   1.404       .  A
C967        C972   1.405       .  A
C967        H974   1.084       .  S
C968        C969   1.410       .  A
C969        C970   1.405       .  A
C969        F976   1.358       .  S
C970        C971   1.403       .  A
C970        H975   1.083       .  S
C971        C972   1.409       .  A
C972        F973   1.358       .  S
C977        C978   1.415       .  A
C977        C982   1.418       .  A
C977        H984   1.083       .  S
C978        C979   1.405       .  A
C979        C980   1.408       .  A
C979        F986   1.357       .  S
C980        C981   1.409       .  A
C980        H985   1.080       .  S
C981        C982   1.407       .  A
C982        F983   1.357       .  S
C987        C988   1.410       .  A
C987        C992   1.407       .  A
C987        H994   1.084       .  S
C988        C989   1.407       .  A
C989        C990   1.409       .  A
C989        F996   1.357       .  S
C990        C991   1.410       .  A
C990        H995   1.084       .  S
C991        C992   1.406       .  A
C992        F993   1.357       .  S
C997        C998   1.406       .  A
C997       C1002   1.402       .  A
C997       H1004   1.084       .  S
C998        C999   1.407       .  A
C999       C1000   1.408       .  A
C999       F1006   1.358       .  S
C1000      C1001   1.408       .  A
C1000      H1005   1.083       .  S
C1001      C1002   1.404       .  A
C1002      F1003   1.357       .  S
C1007      C1008   1.408       .  A
C1007      C2188   1.406       .  A
C1007      H1014   1.083       .  S
C1008      C1009   1.415       .  A
C1009      C2186   1.407       .  A
C1009      F1016   1.357       .  S
C1010      C2185   1.403   1_545  A
C1010      C1011   1.410       .  A
C1010      H1015   1.083       .  S
C1011      C1012   1.408       .  A
C1012      C2183   1.407   1_545  A
C1012      F1013   1.357       .  S
C1017      C1018   1.409       .  A
C1017      C1022   1.413       .  A
C1017      H1024   1.080       .  S
C1018      C1019   1.418       .  A
C1019      C1020   1.373       .  A
C1019      F1026   1.360   1_455  S
C1020      C1021   1.392       .  A
C1020      H1025   1.085       .  S
C1021      C1022   1.409       .  A
C1022      F1023   1.356       .  S
C1027      C1028   1.399       .  A
C1027      C1032   1.399       .  A
C1027      H1034   1.084       .  S
C1028      C1029   1.405       .  A
C1029      C1030   1.392       .  A
C1029      F1036   1.356       .  S
C1030      C1031   1.404       .  A
C1030      H1035   1.083       .  S
C1031      C1032   1.412       .  A
C1032      F1033   1.356       .  S
C1037      C1038   1.406       .  A
C1037      C1042   1.400       .  A
C1037      H1044   1.075       .  S
C1038      C1039   1.415       .  A
C1039      C1040   1.408       .  A
C1039      F1046   1.357       .  S
C1040      C1041   1.405       .  A
C1040      H1045   1.083       .  S
C1041      C1042   1.402       .  A
C1042      F1043   1.357       .  S
C1047      C1048   1.402       .  A
C1047      C1052   1.402       .  A
C1047      H1054   1.083       .  S
C1048      C1049   1.395       .  A
C1049      C1050   1.388       .  A
C1049      F1056   1.356       .  S
C1050      C1051   1.412       .  A
C1050      H1055   1.078       .  S
C1051      C1052   1.411       .  A
C1052      F1053   1.356       .  S
C1057      C1058   1.398       .  A
C1057      C1062   1.385       .  A
C1057      H1064   1.084       .  S
C1058      C1059   1.415       .  A
C1059      C1060   1.424       .  A
C1059      F1066   1.356       .  S
C1060      C1061   1.416       .  A
C1060      H1065   1.082       .  S
C1061      C1062   1.421       .  A
C1062      F1063   1.356       .  S
C1067      C1068   1.405       .  A
C1067      C1072   1.401       .  A
C1067      H1074   1.078       .  S
C1068      C1069   1.408       .  A
C1069      C1070   1.404       .  A
C1069      F1076   1.357       .  S
C1070      C1071   1.407       .  A
C1070      H1075   1.083       .  S
C1071      C1072   1.409       .  A
C1072      F1073   1.357       .  S
C1077      C1078   1.414       .  A
C1077      C1082   1.408       .  A
C1077      H1084   1.082       .  S
C1078      C1079   1.403       .  A
C1079      C1080   1.385       .  A
C1079      F1086   1.357       .  S
C1080      C1081   1.401       .  A
C1080      H1085   1.084       .  S
C1081      C1082   1.402       .  A
C1082      F1083   1.357       .  S
C1087      C1088   1.409       .  A
C1087      C1092   1.390       .  A
C1087      H1094   1.080       .  S
C1088      C1089   1.412       .  A
C1089      C1090   1.398       .  A
C1089      F1096   1.357       .  S
C1090      C1091   1.400       .  A
C1090      H1095   1.083       .  S
C1091      C1092   1.400       .  A
C1092      F1093   1.355       .  S
C1097      C1098   1.415       .  A
C1097      C1102   1.390       .  A
C1097      H1104   1.078       .  S
C1098      C1099   1.415       .  A
C1099      C1100   1.401       .  A
C1099      F1106   1.356       .  S
C1100      C1101   1.400       .  A
C1100      H1105   1.084       .  S
C1101      C1102   1.395       .  A
C1102      F1103   1.358       .  S
C1107      C1108   1.414       .  A
C1107      C1112   1.412       .  A
C1107      H1114   1.081       .  S
C1108      C1109   1.414       .  A
C1109      C1110   1.384       .  A
C1109      F1116   1.357   1_455  S
C1110      C1111   1.393       .  A
C1110      H1115   1.080       .  S
C1111      C1112   1.406       .  A
C1112      F1113   1.357       .  S
C1117      C1118   1.406       .  A
C1117      C1122   1.401       .  A
C1117      H1124   1.076       .  S
C1118      C1119   1.414       .  A
C1119      C1120   1.403       .  A
C1119      F1126   1.357       .  S
C1120      C1121   1.401       .  A
C1120      H1125   1.084       .  S
C1121      C1122   1.406       .  A
C1122      F1123   1.358       .  S
C1127      C1128   1.398       .  A
C1127      C1132   1.396       .  A
C1127      H1134   1.083       .  S
C1128      C1129   1.399       .  A
C1129      C1130   1.396       .  A
C1129      F1136   1.356       .  S
C1130      C1131   1.411       .  A
C1130      H1135   1.080       .  S
C1131      C1132   1.411       .  A
C1132      F1133   1.357       .  S
C1137      C1138   1.415       .  A
C1137      C1142   1.417       .  A
C1137      H1144   1.082       .  S
C1138      C1139   1.422       .  A
C1139      C1140   1.383       .  A
C1139      F1146   1.354       .  S
C1140      C1141   1.397       .  A
C1140      H1145   1.084       .  S
C1141      C1142   1.413       .  A
C1142      F1143   1.357       .  S
C1147      C1148   1.407       .  A
C1147      C1152   1.401       .  A
C1147      H1154   1.077       .  S
C1148      C1149   1.405       .  A
C1149      C1150   1.402       .  A
C1149      F1156   1.358       .  S
C1150      C1151   1.409       .  A
C1150      H1155   1.083       .  S
C1151      C1152   1.405       .  A
C1152      F1153   1.357       .  S
C1157      C1158   1.408       .  A
C1157      C1162   1.384       .  A
C1157      H1164   1.079       .  S
C1158      C1159   1.414       .  A
C1159      C1160   1.403       .  A
C1159      F1166   1.356       .  S
C1160      C1161   1.401       .  A
C1160      H1165   1.083       .  S
C1161      C1162   1.398       .  A
C1162      F1163   1.356       .  S
C1167      C1168   1.405       .  A
C1167      C1172   1.398       .  A
C1167      H1174   1.082       .  S
C1168      C1169   1.414       .  A
C1169      C1170   1.407       .  A
C1169      F1176   1.356       .  S
C1170      C1171   1.405       .  A
C1170      H1175   1.083       .  S
C1171      C1172   1.403       .  A
C1172      F1173   1.350       .  S
C1177      C1179   1.542       .  S
C1177      C1181   1.554       .  S
C1177      C1180   1.543       .  S
C1177      C1736   1.538       .  S
C1178      C1182   1.535       .  S
C1178      C1184   1.535       .  S
C1178      C1183   1.555       .  S
C1178      C1726   1.542       .  S
C1179      C1187   1.395       .  A
C1179      C1182   1.380       .  A
C1180      C1191   1.370       .  A
C1180      C1183   1.427       .  A
C1181      C1195   1.388       .  A
C1181      C1184   1.390       .  A
C1182      C1185   1.379       .  A
C1183      C1189   1.395       .  A
C1184      C1192   1.375       .  A
C1185      N1186   1.348       .  A
C1185      H1198   1.081       .  S
N1186      C1187   1.357       .  A
N1186      C1756   1.445       .  S
C1187      H1188   1.078       .  S
C1189      N1190   1.360       .  A
C1189      H1199   1.082       .  S
N1190      C1191   1.346       .  A
N1190      N1236   1.406       .  S
C1191      H1197   1.083       .  S
C1192      N1193   1.352       .  A
C1192      H1194   1.083       .  S
N1193      C1195   1.358       .  A
N1193      C1746   1.440       .  S
C1195      H1196   1.079       .  S
C1200      C1204   1.536       .  S
C1200      C1203   1.550       .  S
C1200      C1706   1.548       .  S
C1201      C1205   1.552   1_455  S
C1201      C1206   1.532       .  S
C1201      C1696   1.538       .  S
C1202      C1210   1.390       .  A
C1202      C1205   1.409       .  A
C1203      C1214   1.382       .  A
C1204      C1218   1.381       .  A
C1204      C1207   1.386       .  A
C1205      C1208   1.380       .  A
C1206      C1212   1.376       .  A
C1207      C1215   1.386   1_655  A
C1208      N1209   1.347       .  A
C1208      H1221   1.081       .  S
N1209      C1210   1.353       .  A
N1209      C1719   1.433       .  S
C1210      H1211   1.081       .  S
C1212      H1222   1.082       .  S
N1213      C1214   1.351   1_455  A
N1213      N1259   1.402       .  S
C1214      H1220   1.082       .  S
C1215      N1216   1.352       .  A
C1215      H1217   1.082       .  S
N1216      C1218   1.346   1_455  A
N1216      C1686   1.435       .  S
C1218      H1219   1.076       .  S
C1223      C1225   1.545       .  S
C1223      C1227   1.564       .  S
C1223      C1814   1.547       .  S
C1223      C1656   1.541       .  S
C1224      C1228   1.529       .  S
C1224      C1230   1.523       .  S
C1224      C1817   1.546       .  S
C1224      C1649   1.530       .  S
C1225      C1233   1.392       .  A
C1225      C1228   1.386       .  A
C1226      C1811   1.543       .  S
C1226      C1237   1.373   1_556  A
C1226      C1229   1.429       .  A
C1227      C1241   1.398       .  A
C1227      C1230   1.382       .  A
C1228      C1231   1.384       .  A
C1229      C1812   1.552       .  S
C1229      C1235   1.394   1_556  A
C1230      C1238   1.363       .  A
C1231      N1232   1.354       .  A
C1231      H1244   1.080       .  S
N1232      C1233   1.357       .  A
N1232      C1666   1.455       .  S
C1233      H1234   1.076       .  S
C1235      N1236   1.357       .  A
C1235      H1245   1.082       .  S
N1236      C1237   1.346       .  A
C1237      H1243   1.082       .  S
C1238      N1239   1.354       .  A
C1238      H1240   1.078       .  S
N1239      C1241   1.368       .  A
N1239      C1676   1.455       .  S
C1241      H1242   1.074       .  S
C1246      C1250   1.531       .  S
C1246      C1837   1.542       .  S
C1246      C1626   1.545       .  S
C1247      C1251   1.554       .  S
C1247      C1840   1.531   1_655  S
C1247      C1606   1.540   1_655  S
C1248      C1256   1.390       .  A
C1248      C1251   1.412       .  A
C1249      C1834   1.554       .  S
C1249      C1260   1.374   1_556  A
C1250      C1264   1.382       .  A
C1250      C1253   1.385   1_655  A
C1251      C1254   1.380       .  A
C1252      C1835   1.534       .  S
C1252      C1258   1.378       .  A
C1253      C1261   1.385       .  A
C1254      N1255   1.347       .  A
C1254      H1267   1.081       .  S
N1255      C1256   1.351       .  A
N1255      C1639   1.433       .  S
C1256      H1257   1.080       .  S
C1258      N1259   1.346   1_556  A
C1258      H1268   1.082   1_556  S
C1260      H1266   1.082       .  S
C1261      N1262   1.351       .  A
C1261      H1263   1.082       .  S
N1262      C1264   1.348   1_455  A
N1262      C1619   1.436       .  S
C1264      H1265   1.077       .  S
Fe1269     O1285   2.024       .  S
Fe1269     O1275   2.057       .  S
Fe1269     O1282   2.036       .  S
Fe1269     O1274   2.033       .  S
Fe1269     O1280   1.938       .  S
Fe1270     O1273   2.066       .  S
Fe1270     O1277   2.182       .  S
Fe1270     O1281   2.085       .  S
Fe1270     O1286   2.154       .  S
Fe1270     O1280   1.954       .  S
Fe1271     O1289   2.095       .  S
Fe1271     O1276   2.039       .  S
Fe1271     O1283   2.068       .  S
Fe1271     O1272   2.129       .  S
Fe1271     O1280   1.953       .  S
O1272      C1279   1.282       .  A
O1273      C1287   1.267       .  A
O1274      C1279   1.265       .  A
O1275      C1278   1.263       .  A
O1276      C1288   1.269       .  A
O1277      C1290   1.300       .  A
C1278      O1283   1.263       .  A
C1278      C1749   1.463       .  S
C1279      C1586   1.479       .  S
O1281      C1284   1.262       .  A
O1282      C1284   1.259       .  A
C1284      C1646   1.477       .  S
O1285      C1290   1.268       .  A
O1286      C1288   1.292       .  A
C1287      O1289   1.274       .  A
C1287      C1596   1.495       .  S
C1288      C1576   1.492       .  S
C1290      C1566   1.498       .  S
Fe1291     O1307   2.026       .  S
Fe1291     O1297   2.090       .  S
Fe1291     O1304   2.068       .  S
Fe1291     O1296   2.027       .  S
Fe1291     O1302   1.940       .  S
Fe1292     O1295   2.051       .  S
Fe1292     O1299   2.168       .  S
Fe1292     O1303   2.079       .  S
Fe1292     O1308   2.153       .  S
Fe1292     O1302   1.964       .  S
Fe1293     O1311   2.106       .  S
Fe1293     O1298   2.030       .  S
Fe1293     O1305   2.053       .  S
Fe1293     O1294   2.127       .  S
Fe1293     O1302   1.969       .  S
O1294      C1301   1.278       .  A
O1295      C1309   1.264       .  A
O1296      C1301   1.260       .  A
O1297      C1300   1.274       .  A
O1298      C1310   1.267       .  A
O1299      C1312   1.292       .  A
C1300      O1305   1.264       .  A
C1300      C1679   1.466       .  S
C1301      C1589   1.476       .  S
O1303      C1306   1.264       .  A
O1304      C1306   1.269       .  A
C1306      C1729   1.496       .  S
O1307      C1312   1.266       .  A
O1308      C1310   1.291       .  A
C1309      O1311   1.274       .  A
C1309      C1599   1.490       .  S
C1310      C1559   1.489       .  S
C1312      C1546   1.510       .  S
Fe1313     O1329   2.098       .  S
Fe1313     O1319   2.031       .  S
Fe1313     O1326   2.050       .  S
Fe1313     O1318   2.053       .  S
Fe1313     O1324   1.934       .  S
Fe1314     O1317   2.043       .  S
Fe1314     O1321   2.125       .  S
Fe1314     O1325   2.076       .  S
Fe1314     O1330   2.115       .  S
Fe1314     O1324   1.954       .  S
Fe1315     O1333   2.119       .  S
Fe1315     O1320   2.100       .  S
Fe1315     O1327   2.106       .  S
Fe1315     O1316   2.097       .  S
Fe1315     O1324   1.949       .  S
O1316      C1323   1.276       .  A
O1317      C1331   1.256       .  A
O1318      C1323   1.268       .  A
O1319      C1322   1.263       .  A
O1320      C1332   1.285       .  A
O1321      C1334   1.289       .  A
C1322      O1327   1.278       .  A
C1322      C1669   1.474       .  S
C1323      C1529   1.482       .  S
O1325      C1328   1.260       .  A
O1326      C1328   1.255       .  A
C1328      C1739   1.479       .  S
O1329      C1334   1.283       .  A
O1330      C1332   1.291       .  A
C1331      O1333   1.274       .  A
C1331      C1539   1.501       .  S
C1332      C1516   1.493       .  S
C1334      C1569   1.509       .  S
Fe1335     O1351   2.094       .  S
Fe1335     O1341   2.037       .  S
Fe1335     O1348   2.066       .  S
Fe1335     O1340   2.054       .  S
Fe1335     O1346   1.929       .  S
Fe1336     O1339   2.029       .  S
Fe1336     O1343   2.111       .  S
Fe1336     O1347   2.069       .  S
Fe1336     O1352   2.102       .  S
Fe1336     O1346   1.938       .  S
Fe1337     O1355   2.120       .  S
Fe1337     O1342   2.094       .  S
Fe1337     O1349   2.093       .  S
Fe1337     O1338   2.096       .  S
Fe1337     O1346   1.941       .  S
O1338      C1345   1.275       .  A
O1339      C1353   1.252       .  A
O1340      C1345   1.269       .  A
O1341      C1344   1.266       .  A
O1342      C1354   1.287       .  A
O1343      C1356   1.288       .  A
C1344      O1349   1.278       .  A
C1344      C1759   1.471       .  S
C1345      C1526   1.483       .  S
O1347      C1350   1.258       .  A
O1348      C1350   1.256       .  A
C1350      C1659   1.481       .  S
O1351      C1356   1.283       .  A
O1352      C1354   1.293       .  A
C1353      O1355   1.273       .  A
C1353      C1536   1.501       .  S
C1354      C1506   1.481       .  S
C1356      C1549   1.494       .  S
Fe1357     O1373   2.092       .  S
Fe1357     O1363   2.035       .  S
Fe1357     O1370   2.055       .  S
Fe1357     O1362   2.037       .  S
Fe1357     O1368   1.924       .  S
Fe1358     O1361   2.052       .  S
Fe1358     O1365   2.134       .  S
Fe1358     O1369   2.092       .  S
Fe1358     O1374   2.128       .  S
Fe1358     O1368   1.943       .  S
Fe1359     O1377   2.113       .  S
Fe1359     O1364   2.086       .  S
Fe1359     O1371   2.089       .  S
Fe1359     O1360   2.107       .  S
Fe1359     O1368   1.940       .  S
O1360      C1367   1.275       .  A
O1361      C1375   1.256       .  A
O1362      C1367   1.263       .  A
O1363      C1366   1.267       .  A
O1364      C1376   1.285       .  A
O1365      C1378   1.292       .  A
C1366      O1371   1.277       .  A
C1366      C1616   1.465       .  S
C1367      C1496   1.482       .  S
O1369      C1372   1.260       .  A
O1370      C1372   1.251       .  A
C1372      C1699   1.472       .  S
O1373      C1378   1.283       .  A
O1374      C1376   1.299       .  A
C1375      O1377   1.273       .  A
C1375      C1486   1.503       .  S
C1376      C1519   1.492       .  S
C1378      C1476   1.512       .  S
Fe1379     O1395   2.092       .  S
Fe1379     O1385   2.026       .  S
Fe1379     O1392   2.060       .  S
Fe1379     O1384   2.038       .  S
Fe1379     O1390   1.930       .  S
Fe1380     O1383   2.032       .  S
Fe1380     O1387   2.117       .  S
Fe1380     O1391   2.091       .  S
Fe1380     O1396   2.112       .  S
Fe1380     O1390   1.938       .  S
Fe1381     O1399   2.127       .  S
Fe1381     O1386   2.091       .  S
Fe1381     O1393   2.097       .  S
Fe1381     O1382   2.104       .  S
Fe1381     O1390   1.950       .  S
O1382      C1389   1.274       .  A
O1383      C1397   1.254       .  A
O1384      C1389   1.263       .  A
O1385      C1388   1.267       .  A
O1386      C1398   1.288       .  A
O1387      C1400   1.287       .  A
C1388      O1393   1.280       .  A
C1388      C1689   1.465       .  S
C1389      C1499   1.481       .  S
O1391      C1394   1.261       .  A
O1392      C1394   1.253       .  A
C1394      C1609   1.476       .  S
O1395      C1400   1.280       .  A
O1396      C1398   1.295       .  A
C1397      O1399   1.274       .  A
C1397      C1489   1.510       .  S
C1398      C1509   1.484       .  S
C1400      C1469   1.502       .  S
Fe1401     O1417   2.077       .  S
Fe1401     O1407   2.055       .  S
Fe1401     O1414   2.054       .  S
Fe1401     O1406   2.043       .  S
Fe1401     O1412   1.934       .  S
Fe1402     O1405   2.035       .  S
Fe1402     O1409   2.151       .  S
Fe1402     O1413   2.076       .  S
Fe1402     O1418   2.144       .  S
Fe1402     O1412   1.954       .  S
Fe1403     O1421   2.104       .  S
Fe1403     O1408   2.068       .  S
Fe1403     O1415   2.080       .  S
Fe1403     O1404   2.102       .  S
Fe1403     O1412   1.970       .  S
O1404      C1411   1.272       .  A
O1405      C1419   1.256       .  A
O1406      C1411   1.262       .  A
O1407      C1410   1.272       .  A
O1408      C1420   1.281       .  A
O1409      C1422   1.294       .  A
C1410      O1415   1.275       .  A
C1410      C1716   1.487       .  S
C1411      C1456   1.480       .  S
O1413      C1416   1.259       .  A
O1414      C1416   1.258       .  A
C1416      C1629   1.480       .  S
O1417      C1422   1.279       .  A
O1418      C1420   1.297       .  A
C1419      O1421   1.270       .  A
C1419      C1449   1.496       .  S
C1420      C1579   1.492       .  S
C1422      C1479   1.518       .  S
Fe1423     O1439   2.058       .  S
Fe1423     O1429   2.065       .  S
Fe1423     O1436   2.059       .  S
Fe1423     O1428   2.045       .  S
Fe1423     O1434   1.944       .  S
Fe1424     O1427   2.043       .  S
Fe1424     O1431   2.145       .  S
Fe1424     O1435   2.080       .  S
Fe1424     O1440   2.143       .  S
Fe1424     O1434   1.960       .  S
Fe1425     O1443   2.098       .  S
Fe1425     O1430   2.051       .  S
Fe1425     O1437   2.062       .  S
Fe1425     O1426   2.110       .  S
Fe1425     O1434   1.969       .  S
O1426      C1433   1.274       .  A
O1427      C1441   1.258       .  A
O1428      C1433   1.263       .  A
O1429      C1432   1.272       .  A
O1430      C1442   1.277       .  A
O1431      C1444   1.292       .  A
C1432      O1437   1.270       .  A
C1432      C1636   1.481       .  S
C1433      C1459   1.487       .  S
O1435      C1438   1.261       .  A
O1436      C1438   1.260       .  A
C1438      C1709   1.482       .  S
O1439      C1444   1.276       .  A
O1440      C1442   1.295       .  A
C1441      O1443   1.269       .  A
C1441      C1446   1.492       .  S
C1442      C1556   1.486       .  S
C1444      C1466   1.504       .  S
C1445      C1446   1.401       .  A
C1445      C1450   1.404       .  A
C1445      H1452   1.083       .  S
C1446      C1447   1.414       .  A
C1447      C1448   1.405       .  A
C1447      F1454   1.357       .  S
C1448      C1449   1.402       .  A
C1448      H1453   1.083       .  S
C1449      C1450   1.418       .  A
C1450      F1451   1.358       .  S
C1455      C1456   1.405       .  A
C1455      H1462   1.083       .  S
C1456      C1457   1.408       .  A
C1457      F1464   1.358       .  S
C1458      C1459   1.406       .  A
C1458      H1463   1.084       .  S
C1459      C1460   1.411       .  A
C1460      F1461   1.357       .  S
C1465      C1466   1.408       .  A
C1465      C1470   1.397       .  A
C1465      H1472   1.084       .  S
C1466      C1467   1.410       .  A
C1467      C1468   1.422   1_655  A
C1467      F1474   1.356       .  S
C1468      C1469   1.415       .  A
C1468      H1473   1.083       .  S
C1469      C1470   1.407   1_455  A
C1470      F1471   1.355       .  S
C1475      C1476   1.403       .  A
C1475      C1480   1.398   1_455  A
C1475      H1482   1.083       .  S
C1476      C1477   1.419       .  A
C1477      C1478   1.429   1_455  A
C1477      F1484   1.356       .  S
C1478      C1479   1.414       .  A
C1478      H1483   1.082       .  S
C1479      C1480   1.414       .  A
C1480      F1481   1.353       .  S
C1485      C1486   1.397       .  A
C1485      C1490   1.401       .  A
C1485      H1492   1.083       .  S
C1486      C1487   1.421       .  A
C1487      C1488   1.413       .  A
C1487      F1494   1.358       .  S
C1488      C1489   1.406       .  A
C1488      H1493   1.083       .  S
C1489      C1490   1.423       .  A
C1490      F1491   1.357       .  S
C1495      C1496   1.403       .  A
C1495      H1502   1.083       .  S
C1496      C1497   1.410       .  A
C1497      F1504   1.358       .  S
C1498      C1499   1.404       .  A
C1498      H1503   1.083       .  S
C1499      C1500   1.409       .  A
C1500      F1501   1.357       .  S
C1505      C1506   1.408       .  A
C1505      C1510   1.408       .  A
C1505      H1512   1.084       .  S
C1506      C1507   1.405       .  A
C1507      C1508   1.403       .  A
C1507      F1514   1.358       .  S
C1508      C1509   1.407       .  A
C1508      H1513   1.084       .  S
C1509      C1510   1.406       .  A
C1510      F1511   1.357       .  S
C1515      C1516   1.404       .  A
C1515      C1520   1.406       .  A
C1515      H1522   1.083       .  S
C1516      C1517   1.411       .  A
C1517      C1518   1.413       .  A
C1517      F1524   1.357       .  S
C1518      C1519   1.407       .  A
C1518      H1523   1.083       .  S
C1519      C1520   1.411       .  A
C1520      F1521   1.358       .  S
C1525      C1526   1.405       .  A
C1525      C1530   1.400       .  A
C1525      H1532   1.083       .  S
C1526      C1527   1.409       .  A
C1527      C1528   1.403       .  A
C1527      F1534   1.358       .  S
C1528      C1529   1.406       .  A
C1528      H1533   1.083       .  S
C1529      C1530   1.407       .  A
C1530      F1531   1.357       .  S
C1535      C1536   1.419       .  A
C1535      H1542   1.083       .  S
C1536      C1537   1.402       .  A
C1537      F1544   1.357       .  S
C1538      C1539   1.417       .  A
C1538      H1543   1.083       .  S
C1539      C1540   1.402       .  A
C1540      F1541   1.357       .  S
C1545      C1546   1.410       .  A
C1545      C1550   1.421       .  A
C1545      H1552   1.083       .  S
C1546      C1547   1.418       .  A
C1547      C1548   1.397       .  A
C1547      F1554   1.355       .  S
C1548      C1549   1.397       .  A
C1548      H1553   1.084       .  S
C1549      C1550   1.416       .  A
C1550      F1551   1.357       .  S
C1555      C1556   1.404       .  A
C1555      C1560   1.407       .  A
C1555      H1562   1.083       .  S
C1556      C1557   1.411       .  A
C1557      C1558   1.408       .  A
C1557      F1564   1.358       .  S
C1558      C1559   1.404       .  A
C1558      H1563   1.083       .  S
C1559      C1560   1.413       .  A
C1560      F1561   1.358       .  S
C1565      C1566   1.416       .  A
C1565      C1570   1.421       .  A
C1565      H1572   1.083       .  S
C1566      C1567   1.405       .  A
C1567      C1568   1.406       .  A
C1567      F1574   1.358       .  S
C1568      C1569   1.408       .  A
C1568      H1573   1.080       .  S
C1569      C1570   1.409       .  A
C1570      F1571   1.356       .  S
C1575      C1576   1.412       .  A
C1575      C1580   1.411       .  A
C1575      H1582   1.084       .  S
C1576      C1577   1.406       .  A
C1577      C1578   1.409       .  A
C1577      F1584   1.357       .  S
C1578      C1579   1.410       .  A
C1578      H1583   1.084       .  S
C1579      C1580   1.406       .  A
C1580      F1581   1.357       .  S
C1585      C1586   1.408       .  A
C1585      C1590   1.401       .  A
C1585      H1592   1.084       .  S
C1586      C1587   1.403       .  A
C1587      C1588   1.402       .  A
C1587      F1594   1.357       .  S
C1588      C1589   1.408       .  A
C1588      H1593   1.084       .  S
C1589      C1590   1.404       .  A
C1590      F1591   1.358       .  S
C1595      C1596   1.404       .  A
C1595      H1602   1.083       .  S
C1596      C1597   1.414       .  A
C1597      F1604   1.358       .  S
C1598      C1599   1.406       .  A
C1598      H1603   1.084       .  S
C1599      C1600   1.408       .  A
C1600      F1601   1.357       .  S
C1605      C1606   1.418       .  A
C1605      C1610   1.412       .  A
C1605      H1612   1.079       .  S
C1606      C1607   1.415       .  A
C1607      C1608   1.385       .  A
C1607      F1614   1.356   1_455  S
C1608      C1609   1.391       .  A
C1608      H1613   1.076       .  S
C1609      C1610   1.404       .  A
C1610      F1611   1.357       .  S
C1615      C1616   1.402       .  A
C1615      C1620   1.403       .  A
C1615      H1622   1.083       .  S
C1616      C1617   1.405       .  A
C1617      C1618   1.389       .  A
C1617      F1624   1.356       .  S
C1618      C1619   1.400       .  A
C1618      H1623   1.083       .  S
C1619      C1620   1.410       .  A
C1620      F1621   1.357       .  S
C1625      C1626   1.404       .  A
C1625      C1630   1.398       .  A
C1625      H1632   1.079       .  S
C1626      C1627   1.412       .  A
C1627      C1628   1.407       .  A
C1627      F1634   1.357       .  S
C1628      C1629   1.406       .  A
C1628      H1633   1.083       .  S
C1629      C1630   1.405       .  A
C1630      F1631   1.357       .  S
C1635      C1636   1.406       .  A
C1635      C1640   1.383       .  A
C1635      H1642   1.083       .  S
C1636      C1637   1.412       .  A
C1637      C1638   1.407       .  A
C1637      F1644   1.357       .  S
C1638      C1639   1.402       .  A
C1638      H1643   1.083       .  S
C1639      C1640   1.401       .  A
C1640      F1641   1.357       .  S
C1645      C1646   1.395       .  A
C1645      C1650   1.381       .  A
C1645      H1652   1.085       .  S
C1646      C1647   1.407       .  A
C1647      C1648   1.413       .  A
C1647      F1654   1.356       .  S
C1648      C1649   1.412       .  A
C1648      H1653   1.082       .  S
C1649      C1650   1.418       .  A
C1650      F1651   1.358       .  S
C1655      C1656   1.408       .  A
C1655      C1660   1.392       .  A
C1655      H1662   1.062       .  S
C1656      C1657   1.419       .  A
C1657      C1658   1.408       .  A
C1657      F1664   1.358       .  S
C1658      C1659   1.403       .  A
C1658      H1663   1.083       .  S
C1659      C1660   1.402       .  A
C1660      F1661   1.358       .  S
C1665      C1666   1.416       .  A
C1665      C1670   1.406       .  A
C1665      H1672   1.081       .  S
C1666      C1667   1.412       .  A
C1667      C1668   1.396       .  A
C1667      F1674   1.356       .  S
C1668      C1669   1.403       .  A
C1668      H1673   1.084       .  S
C1669      C1670   1.401       .  A
C1670      F1671   1.356       .  S
C1675      C1676   1.412       .  A
C1675      C1680   1.400       .  A
C1675      H1682   1.081       .  S
C1676      C1677   1.418       .  A
C1677      C1678   1.396       .  A
C1677      F1684   1.356       .  S
C1678      C1679   1.396       .  A
C1678      H1683   1.084       .  S
C1679      C1680   1.400       .  A
C1680      F1681   1.356       .  S
C1685      C1686   1.407       .  A
C1685      C1690   1.402       .  A
C1685      H1692   1.082       .  S
C1686      C1687   1.404       .  A
C1687      C1688   1.391       .  A
C1687      F1694   1.358   1_455  S
C1688      C1689   1.405       .  A
C1688      H1693   1.083       .  S
C1689      C1690   1.403       .  A
C1690      F1691   1.357       .  S
C1695      C1696   1.415       .  A
C1695      C1700   1.411       .  A
C1695      H1702   1.079       .  S
C1696      C1697   1.415       .  A
C1697      C1698   1.384       .  A
C1697      F1704   1.356   1_455  S
C1698      C1699   1.392       .  A
C1698      H1703   1.080       .  S
C1699      C1700   1.405       .  A
C1700      F1701   1.357       .  S
C1705      C1706   1.410       .  A
C1705      C1710   1.408       .  A
C1705      H1712   1.083       .  S
C1706      C1707   1.408       .  A
C1707      C1708   1.403       .  A
C1707      F1714   1.356       .  S
C1708      C1709   1.404       .  A
C1708      H1713   1.083       .  S
C1709      C1710   1.407       .  A
C1710      F1711   1.358       .  S
C1715      C1716   1.409       .  A
C1715      C1720   1.382       .  A
C1715      H1722   1.083       .  S
C1716      C1717   1.412       .  A
C1717      C1718   1.409       .  A
C1717      F1724   1.357       .  S
C1718      C1719   1.404       .  A
C1718      H1723   1.082       .  S
C1719      C1720   1.399       .  A
C1720      F1721   1.358       .  S
C1725      C1726   1.411       .  A
C1725      C1730   1.419       .  A
C1725      H1732   1.082       .  S
C1726      C1727   1.426       .  A
C1727      C1728   1.384       .  A
C1727      F1734   1.357       .  S
C1728      C1729   1.394       .  A
C1728      H1733   1.084       .  S
C1729      C1730   1.415       .  A
C1730      F1731   1.356       .  S
C1735      C1736   1.405       .  A
C1735      C1740   1.399       .  A
C1735      H1742   1.080       .  S
C1736      C1737   1.405       .  A
C1737      C1738   1.401       .  A
C1737      F1744   1.358       .  S
C1738      C1739   1.408       .  A
C1738      H1743   1.083       .  S
C1739      C1740   1.406       .  A
C1740      F1741   1.357       .  S
C1745      C1746   1.404       .  A
C1745      C1750   1.389       .  A
C1745      H1752   1.082       .  S
C1746      C1747   1.410       .  A
C1747      C1748   1.402       .  A
C1747      F1754   1.356       .  S
C1748      C1749   1.400       .  A
C1748      H1753   1.083       .  S
C1749      C1750   1.402       .  A
C1750      F1751   1.355       .  S
C1755      C1756   1.405       .  A
C1755      C1760   1.393       .  A
C1755      H1762   1.082       .  S
C1756      C1757   1.412       .  A
C1757      C1758   1.404       .  A
C1757      F1764   1.356       .  S
C1758      C1759   1.403       .  A
C1758      H1763   1.083       .  S
C1759      C1760   1.405       .  A
C1760      F1761   1.357       .  S
C1765      C1767   1.549       .  S
C1765      C1769   1.557       .  S
C1765      C1768   1.543       .  S
C1765      C2324   1.544       .  S
C1766      C1770   1.532       .  S
C1766      C1772   1.532       .  S
C1766      C1771   1.551       .  S
C1766      C2314   1.541       .  S
C1767      C1775   1.397       .  A
C1767      C1770   1.390       .  A
C1768      C1779   1.371       .  A
C1768      C1771   1.428       .  A
C1769      C1783   1.389       .  A
C1769      C1772   1.386       .  A
C1770      C1773   1.381       .  A
C1771      C1777   1.390       .  A
C1772      C1780   1.373       .  A
C1773      N1774   1.348       .  A
C1773      H1786   1.082       .  S
N1774      C1775   1.355       .  A
N1774      C2344   1.446       .  S
C1775      H1776   1.078       .  S
C1777      N1778   1.357       .  A
C1777      H1787   1.081       .  S
N1778      C1779   1.345       .  A
N1778      N1824   1.403       .  S
C1779      H1785   1.083       .  S
C1780      N1781   1.354       .  A
C1780      H1782   1.081       .  S
N1781      C1783   1.362       .  A
N1781      C2334   1.448       .  S
C1783      H1784   1.071       .  S
C1788      C1792   1.534       .  S
C1788      C1791   1.543       .  S
C1788      C2294   1.540       .  S
C1789      C1793   1.535       .  S
C1789      C1794   1.522       .  S
C1789      C2284   1.531       .  S
C1790      C1798   1.387   1_545  A
C1790      C1793   1.393   1_645  A
C1791      C1802   1.375       .  A
C1792      C1806   1.383       .  A
C1792      C1795   1.394   1_655  A
C1793      C1796   1.387       .  A
C1794      C1800   1.373       .  A
C1795      C1803   1.385       .  A
C1796      N1797   1.350   1_455  A
C1796      H1809   1.081       .  S
N1797      C1798   1.350       .  A
N1797      C2307   1.448       .  S
C1798      H1799   1.076   1_565  S
C1800      H1810   1.081       .  S
N1801      C1802   1.346   1_455  A
N1801      N1847   1.397       .  S
C1802      H1808   1.082       .  S
C1803      N1804   1.351       .  A
C1803      H1805   1.082       .  S
N1804      C1806   1.347   1_455  A
N1804      C2274   1.440       .  S
C1806      H1807   1.077       .  S
C1811      C1813   1.540       .  S
C1811      C1815   1.554       .  S
C1811      C2244   1.545       .  S
C1812      C1816   1.533       .  S
C1812      C1818   1.535       .  S
C1812      C2237   1.544       .  S
C1813      C1821   1.385       .  A
C1813      C1816   1.383       .  A
C1814      C1825   1.377       .  A
C1814      C1817   1.429       .  A
C1815      C1829   1.388       .  A
C1815      C1818   1.392       .  A
C1816      C1819   1.383       .  A
C1817      C1823   1.388       .  A
C1818      C1826   1.370       .  A
C1819      N1820   1.352       .  A
C1819      H1832   1.081       .  S
N1820      C1821   1.353       .  A
N1820      C2254   1.445       .  S
C1821      H1822   1.074       .  S
C1823      N1824   1.352       .  A
C1823      H1833   1.082       .  S
N1824      C1825   1.347       .  A
C1825      H1831   1.082       .  S
C1826      N1827   1.355       .  A
C1826      H1828   1.081       .  S
N1827      C1829   1.361       .  A
N1827      C2264   1.443       .  S
C1829      H1830   1.076       .  S
C1834      C1838   1.543       .  S
C1834      C2214   1.543       .  S
C1835      C1839   1.554   1_455  S
C1835      C2194   1.542       .  S
C1836      C1844   1.388       .  A
C1836      C1839   1.409       .  A
C1837      C1848   1.373       .  A
C1838      C1852   1.397   1_655  A
C1838      C1841   1.391   1_655  A
C1839      C1842   1.378       .  A
C1840      C1846   1.377       .  A
C1841      C1849   1.377       .  A
C1842      N1843   1.347       .  A
C1842      H1855   1.081       .  S
N1843      C1844   1.352       .  A
N1843      C2227   1.431       .  S
C1844      H1845   1.078       .  S
C1846      N1847   1.346       .  A
C1846      H1856   1.083       .  S
C1848      H1854   1.082       .  S
C1849      N1850   1.346       .  A
C1849      H1851   1.080       .  S
N1850      C1852   1.353       .  A
N1850      C2207   1.446       .  S
C1852      H1853   1.075   1_455  S
Fe1857     O1873   2.034       .  S
Fe1857     O1863   2.050       .  S
Fe1857     O1870   2.046       .  S
Fe1857     O1862   2.029       .  S
Fe1857     O1868   1.958       .  S
Fe1858     O1861   2.072       .  S
Fe1858     O1865   2.149       .  S
Fe1858     O1869   2.106       .  S
Fe1858     O1874   2.135       .  S
Fe1858     O1868   1.985       .  S
Fe1859     O1877   2.087       .  S
Fe1859     O1864   2.037       .  S
Fe1859     O1871   2.056       .  S
Fe1859     O1860   2.113       .  S
Fe1859     O1868   1.984       .  S
O1860      C1867   1.277       .  A
O1861      C1875   1.268       .  A
O1862      C1867   1.264       .  A
O1863      C1866   1.264       .  A
O1864      C1876   1.266       .  A
O1865      C1878   1.289       .  A
C1866      O1871   1.261       .  A
C1866      C2337   1.459       .  S
C1867      C2174   1.473       .  S
O1869      C1872   1.268       .  A
O1870      C1872   1.264       .  A
C1872      C2234   1.502       .  S
O1873      C1878   1.265       .  A
O1874      C1876   1.286       .  A
C1875      O1877   1.272       .  A
C1875      C2184   1.494       .  S
C1876      C2164   1.485       .  S
C1878      C2154   1.491       .  S
Fe1879     O1895   2.052       .  S
Fe1879     O1885   2.044       .  S
Fe1879     O1892   2.042       .  S
Fe1879     O1884   2.055       .  S
Fe1879     O1890   1.928       .  S
Fe1880     O1883   2.087       .  S
Fe1880     O1887   2.160       .  S
Fe1880     O1891   2.133       .  S
Fe1880     O1896   2.126       .  S
Fe1880     O1890   1.944       .  S
Fe1881     O1899   2.084       .  S
Fe1881     O1886   2.067       .  S
Fe1881     O1893   2.091       .  S
Fe1881     O1882   2.091       .  S
Fe1881     O1890   1.940       .  S
O1882      C1889   1.269       .  A
O1883      C1897   1.272       .  A
O1884      C1889   1.263       .  A
O1885      C1888   1.272       .  A
O1886      C1898   1.274       .  A
O1887      C1900   1.280       .  A
C1888      O1893   1.276       .  A
C1888      C2267   1.468       .  S
C1889      C2177   1.473       .  S
O1891      C1894   1.281       .  A
O1892      C1894   1.272       .  A
C1894      C2317   1.498       .  S
O1895      C1900   1.258       .  A
O1896      C1898   1.287       .  A
C1897      O1899   1.272       .  A
C1897      C2187   1.495       .  S
C1898      C2147   1.489       .  S
C1900      C2134   1.517       .  S
Fe1901     O1917   2.089       .  S
Fe1901     O1907   2.030       .  S
Fe1901     O1914   2.051       .  S
Fe1901     O1906   2.042       .  S
Fe1901     O1912   1.929       .  S
Fe1902     O1905   2.049       .  S
Fe1902     O1909   2.122       .  S
Fe1902     O1913   2.083       .  S
Fe1902     O1918   2.122       .  S
Fe1902     O1912   1.948       .  S
Fe1903     O1921   2.109       .  S
Fe1903     O1908   2.089       .  S
Fe1903     O1915   2.088       .  S
Fe1903     O1904   2.103       .  S
Fe1903     O1912   1.953       .  S
O1904      C1911   1.276       .  A
O1905      C1919   1.258       .  A
O1906      C1911   1.267       .  A
O1907      C1910   1.265       .  A
O1908      C1920   1.284       .  A
O1909      C1922   1.290       .  A
C1910      O1915   1.274       .  A
C1910      C2257   1.464       .  S
C1911      C2117   1.482       .  S
O1913      C1916   1.260       .  A
O1914      C1916   1.254       .  A
C1916      C2327   1.482       .  S
O1917      C1922   1.282       .  A
O1918      C1920   1.294       .  A
C1919      O1921   1.272       .  A
C1919      C2127   1.503       .  S
C1920      C2104   1.493       .  S
C1922      C2157   1.500       .  S
Fe1923     O1939   2.083       .  S
Fe1923     O1929   2.052       .  S
Fe1923     O1936   2.063       .  S
Fe1923     O1928   2.046       .  S
Fe1923     O1934   1.934       .  S
Fe1924     O1927   2.018       .  S
Fe1924     O1931   2.129       .  S
Fe1924     O1935   2.069       .  S
Fe1924     O1940   2.123       .  S
Fe1924     O1934   1.946       .  S
Fe1925     O1943   2.120       .  S
Fe1925     O1930   2.075       .  S
Fe1925     O1937   2.092       .  S
Fe1925     O1926   2.102       .  S
Fe1925     O1934   1.964       .  S
O1926      C1933   1.272       .  A
O1927      C1941   1.252       .  A
O1928      C1933   1.262       .  A
O1929      C1932   1.270       .  A
O1930      C1942   1.284       .  A
O1931      C1944   1.289       .  A
C1932      O1937   1.280       .  A
C1932      C2347   1.472       .  S
C1933      C2114   1.483       .  S
O1935      C1938   1.259       .  A
O1936      C1938   1.258       .  A
C1938      C2247   1.485       .  S
O1939      C1944   1.282       .  A
O1940      C1942   1.295       .  A
C1941      O1943   1.273       .  A
C1941      C2124   1.503       .  S
C1942      C2094   1.481       .  S
C1944      C2137   1.516       .  S
Fe1945     O1961   2.067       .  S
Fe1945     O1951   2.034       .  S
Fe1945     O1958   2.029       .  S
Fe1945     O1950   2.035       .  S
Fe1945     O1956   1.923       .  S
Fe1946     O1949   2.053       .  S
Fe1946     O1953   2.155       .  S
Fe1946     O1957   2.111       .  S
Fe1946     O1962   2.131       .  S
Fe1946     O1956   1.949       .  S
Fe1947     O1965   2.117       .  S
Fe1947     O1952   2.076       .  S
Fe1947     O1959   2.098       .  S
Fe1947     O1948   2.116       .  S
Fe1947     O1956   1.944       .  S
O1948      C1955   1.275       .  A
O1949      C1963   1.261       .  A
O1950      C1955   1.260       .  A
O1951      C1954   1.270       .  A
O1952      C1964   1.279       .  A
O1953      C1966   1.285       .  A
C1954      O1959   1.279       .  A
C1954      C2204   1.461       .  S
C1955      C2084   1.483       .  S
O1957      C1960   1.268       .  A
O1958      C1960   1.259       .  A
C1960      C2287   1.485       .  S
O1961      C1966   1.267       .  A
O1962      C1964   1.294       .  A
C1963      O1965   1.278       .  A
C1963      C2074   1.507       .  S
C1964      C2107   1.493       .  S
C1966      C2064   1.522       .  S
Fe1967     O1983   2.099       .  S
Fe1967     O1973   2.035       .  S
Fe1967     O1980   2.061       .  S
Fe1967     O1972   2.041       .  S
Fe1967     O1978   1.931       .  S
Fe1968     O1971   2.037       .  S
Fe1968     O1975   2.115       .  S
Fe1968     O1979   2.083       .  S
Fe1968     O1984   2.111       .  S
Fe1968     O1978   1.939       .  S
Fe1969     O1987   2.120       .  S
Fe1969     O1974   2.084       .  S
Fe1969     O1981   2.083       .  S
Fe1969     O1970   2.105       .  S
Fe1969     O1978   1.949       .  S
O1970      C1977   1.274       .  A
O1971      C1985   1.255       .  A
O1972      C1977   1.263       .  A
O1973      C1976   1.268       .  A
O1974      C1986   1.286       .  A
O1975      C1988   1.288       .  A
C1976      O1981   1.277       .  A
C1976      C2277   1.458       .  S
C1977      C2087   1.481       .  S
O1979      C1982   1.261       .  A
O1980      C1982   1.252       .  A
C1982      C2197   1.476       .  S
O1983      C1988   1.283       .  A
O1984      C1986   1.295       .  A
C1985      O1987   1.272       .  A
C1985      C2077   1.504       .  S
C1986      C2097   1.480       .  S
C1988      C2057   1.505       .  S
Fe1989     O2005   2.085       .  S
Fe1989     O1995   2.039       .  S
Fe1989     O2002   2.052       .  S
Fe1989     O1994   2.051       .  S
Fe1989     O2000   1.930       .  S
Fe1990     O1993   2.060       .  S
Fe1990     O1997   2.139       .  S
Fe1990     O2001   2.104       .  S
Fe1990     O2006   2.117       .  S
Fe1990     O2000   1.947       .  S
Fe1991     O2009   2.102       .  S
Fe1991     O1996   2.087       .  S
Fe1991     O2003   2.094       .  S
Fe1991     O1992   2.088       .  S
Fe1991     O2000   1.947       .  S
O1992      C1999   1.270       .  A
O1993      C2007   1.260       .  A
O1994      C1999   1.265       .  A
O1995      C1998   1.269       .  A
O1996      C2008   1.284       .  A
O1997      C2010   1.286       .  A
C1998      O2003   1.278       .  A
C1998      C2304   1.465       .  S
C1999      C2044   1.478       .  S
O2001      C2004   1.268       .  A
O2002      C2004   1.260       .  A
C2004      C2217   1.483       .  S
O2005      C2010   1.275       .  A
O2006      C2008   1.293       .  A
C2007      O2009   1.271       .  A
C2007      C2037   1.497       .  S
C2008      C2167   1.487       .  S
C2010      C2067   1.524       .  S
Fe2011     O2027   2.061       .  S
Fe2011     O2017   2.060       .  S
Fe2011     O2024   2.047       .  S
Fe2011     O2016   2.038       .  S
Fe2011     O2022   1.937       .  S
Fe2012     O2015   2.036       .  S
Fe2012     O2019   2.147       .  S
Fe2012     O2023   2.067       .  S
Fe2012     O2028   2.146       .  S
Fe2012     O2022   1.952       .  S
Fe2013     O2031   2.113       .  S
Fe2013     O2018   2.051       .  S
Fe2013     O2025   2.061       .  S
Fe2013     O2014   2.127       .  S
Fe2013     O2022   1.968       .  S
O2014      C2021   1.277       .  A
O2015      C2029   1.256       .  A
O2016      C2021   1.260       .  A
O2017      C2020   1.272       .  A
O2018      C2030   1.277       .  A
O2019      C2032   1.293       .  A
C2020      O2025   1.270       .  A
C2020      C2224   1.477       .  S
C2021      C2047   1.487       .  S
O2023      C2026   1.258       .  A
O2024      C2026   1.257       .  A
C2026      C2297   1.472       .  S
O2027      C2032   1.276       .  A
O2028      C2030   1.297       .  A
C2029      O2031   1.272       .  A
C2029      C2034   1.506       .  S
C2030      C2144   1.487       .  S
C2032      C2054   1.509       .  S
C2033      C2034   1.406       .  A
C2033      C2038   1.409       .  A
C2033      H2040   1.083       .  S
C2034      C2035   1.421       .  A
C2035      C2036   1.405       .  A
C2035      F2042   1.357       .  S
C2036      C2037   1.400       .  A
C2036      H2041   1.083       .  S
C2037      C2038   1.415       .  A
C2038      F2039   1.358       .  S
C2043      C2044   1.406       .  A
C2043      H2050   1.084       .  S
C2044      C2045   1.405       .  A
C2045      F2052   1.357       .  S
C2046      C2047   1.409       .  A
C2046      H2051   1.084       .  S
C2047      C2048   1.407       .  A
C2048      F2049   1.357       .  S
C2053      C2054   1.410       .  A
C2053      C2058   1.398   1_655  A
C2053      H2060   1.082       .  S
C2054      C2055   1.411       .  A
C2055      C2056   1.423   1_655  A
C2055      F2062   1.356       .  S
C2056      C2057   1.416       .  A
C2056      H2061   1.083       .  S
C2057      C2058   1.406       .  A
C2058      F2059   1.357       .  S
C2063      C2064   1.409       .  A
C2063      C2068   1.397   1_455  A
C2063      H2070   1.083       .  S
C2064      C2065   1.416       .  A
C2065      C2066   1.430   1_455  A
C2065      F2072   1.356       .  S
C2066      C2067   1.419       .  A
C2066      H2071   1.082       .  S
C2067      C2068   1.415       .  A
C2068      F2069   1.358       .  S
C2073      C2074   1.401       .  A
C2073      C2078   1.405       .  A
C2073      H2080   1.083       .  S
C2074      C2075   1.423       .  A
C2075      C2076   1.409       .  A
C2075      F2082   1.358       .  S
C2076      C2077   1.402       .  A
C2076      H2081   1.083       .  S
C2077      C2078   1.419       .  A
C2078      F2079   1.357       .  S
C2083      C2084   1.402       .  A
C2083      H2090   1.083       .  S
C2084      C2085   1.411       .  A
C2085      F2092   1.358       .  S
C2086      C2087   1.404       .  A
C2086      H2091   1.083       .  S
C2087      C2088   1.409       .  A
C2088      F2089   1.358       .  S
C2093      C2094   1.408       .  A
C2093      C2098   1.404       .  A
C2093      H2100   1.084       .  S
C2094      C2095   1.405       .  A
C2095      C2096   1.406       .  A
C2095      F2102   1.357       .  S
C2096      C2097   1.408       .  A
C2096      H2101   1.084       .  S
C2097      C2098   1.404       .  A
C2098      F2099   1.357       .  S
C2103      C2104   1.407       .  A
C2103      C2108   1.415       .  A
C2103      H2110   1.083       .  S
C2104      C2105   1.409       .  A
C2105      C2106   1.405       .  A
C2105      F2112   1.357       .  S
C2106      C2107   1.404       .  A
C2106      H2111   1.084       .  S
C2107      C2108   1.413       .  A
C2108      F2109   1.357       .  S
C2113      C2114   1.408       .  A
C2113      C2118   1.403       .  A
C2113      H2120   1.083       .  S
C2114      C2115   1.407       .  A
C2115      C2116   1.400       .  A
C2115      F2122   1.357       .  S
C2116      C2117   1.407       .  A
C2116      H2121   1.084       .  S
C2117      C2118   1.407       .  A
C2118      F2119   1.358       .  S
C2123      C2124   1.418       .  A
C2123      H2130   1.083       .  S
C2124      C2125   1.405       .  A
C2125      F2132   1.357       .  S
C2126      C2127   1.417       .  A
C2126      H2131   1.083       .  S
C2127      C2128   1.405       .  A
C2128      F2129   1.357       .  S
C2133      C2134   1.414       .  A
C2133      C2138   1.428       .  A
C2133      H2140   1.082       .  S
C2134      C2135   1.416       .  A
C2135      C2136   1.393       .  A
C2135      F2142   1.358       .  S
C2136      C2137   1.405       .  A
C2136      H2141   1.083       .  S
C2137      C2138   1.419       .  A
C2138      F2139   1.356       .  S
C2143      C2144   1.405       .  A
C2143      C2148   1.410       .  A
C2143      H2150   1.083       .  S
C2144      C2145   1.411       .  A
C2145      C2146   1.406       .  A
C2145      F2152   1.358       .  S
C2146      C2147   1.404       .  A
C2146      H2151   1.084       .  S
C2147      C2148   1.412       .  A
C2148      F2149   1.357       .  S
C2153      C2154   1.414       .  A
C2153      C2158   1.417       .  A
C2153      H2160   1.083       .  S
C2154      C2155   1.403       .  A
C2155      C2156   1.403       .  A
C2155      F2162   1.358       .  S
C2156      C2157   1.408       .  A
C2156      H2161   1.080       .  S
C2157      C2158   1.407       .  A
C2158      F2159   1.357       .  S
C2163      C2164   1.409       .  A
C2163      C2168   1.406       .  A
C2163      H2170   1.084       .  S
C2164      C2165   1.407       .  A
C2165      C2166   1.409       .  A
C2165      F2172   1.358       .  S
C2166      C2167   1.409       .  A
C2166      H2171   1.084       .  S
C2167      C2168   1.405       .  A
C2168      F2169   1.357       .  S
C2173      C2174   1.405       .  A
C2173      C2178   1.400       .  A
C2173      H2180   1.084       .  S
C2174      C2175   1.404       .  A
C2175      C2176   1.404       .  A
C2175      F2182   1.358       .  S
C2176      C2177   1.406       .  A
C2176      H2181   1.084       .  S
C2177      C2178   1.403       .  A
C2178      F2179   1.357       .  S
C2183      C2184   1.410       .  A
C2183      H2190   1.083       .  S
C2184      C2185   1.407       .  A
C2185      F2192   1.357       .  S
C2186      C2187   1.406       .  A
C2186      H2191   1.083       .  S
C2187      C2188   1.410       .  A
C2188      F2189   1.357       .  S
C2193      C2194   1.417       .  A
C2193      C2198   1.413       .  A
C2193      H2200   1.081       .  S
C2194      C2195   1.416       .  A
C2195      C2196   1.384       .  A
C2195      F2202   1.352   1_455  S
C2196      C2197   1.391       .  A
C2196      H2201   1.083       .  S
C2197      C2198   1.407       .  A
C2198      F2199   1.357       .  S
C2203      C2204   1.398       .  A
C2203      C2208   1.396       .  A
C2203      H2210   1.084       .  S
C2204      C2205   1.402       .  A
C2205      C2206   1.397       .  A
C2205      F2212   1.356       .  S
C2206      C2207   1.406       .  A
C2206      H2211   1.082       .  S
C2207      C2208   1.415       .  A
C2208      F2209   1.356       .  S
C2213      C2214   1.403       .  A
C2213      C2218   1.397       .  A
C2213      H2220   1.077       .  S
C2214      C2215   1.409       .  A
C2215      C2216   1.407       .  A
C2215      F2222   1.358       .  S
C2216      C2217   1.408       .  A
C2216      H2221   1.083       .  S
C2217      C2218   1.406       .  A
C2218      F2219   1.357       .  S
C2223      C2224   1.403       .  A
C2223      C2228   1.379       .  A
C2223      H2230   1.083       .  S
C2224      C2225   1.412       .  A
C2225      C2226   1.406       .  A
C2225      F2232   1.357       .  S
C2226      C2227   1.401       .  A
C2226      H2231   1.082       .  S
C2227      C2228   1.402       .  A
C2228      F2229   1.357       .  S
C2233      C2234   1.400       .  A
C2233      C2238   1.387       .  A
C2233      H2240   1.084       .  S
C2234      C2235   1.414       .  A
C2235      C2236   1.421       .  A
C2235      F2242   1.356       .  S
C2236      C2237   1.413       .  A
C2236      H2241   1.082       .  S
C2237      C2238   1.420       .  A
C2238      F2239   1.358       .  S
C2243      C2244   1.404       .  A
C2243      C2248   1.400       .  A
C2243      H2250   1.076       .  S
C2244      C2245   1.409       .  A
C2245      C2246   1.405       .  A
C2245      F2252   1.358       .  S
C2246      C2247   1.406       .  A
C2246      H2251   1.083       .  S
C2247      C2248   1.408       .  A
C2248      F2249   1.357       .  S
C2253      C2254   1.413       .  A
C2253      C2258   1.403       .  A
C2253      H2260   1.081       .  S
C2254      C2255   1.408       .  A
C2255      C2256   1.389       .  A
C2255      F2262   1.357       .  S
C2256      C2257   1.402       .  A
C2256      H2261   1.084       .  S
C2257      C2258   1.400       .  A
C2258      F2259   1.356       .  S
C2263      C2264   1.407       .  A
C2263      C2268   1.390       .  A
C2263      H2270   1.080       .  S
C2264      C2265   1.411       .  A
C2265      C2266   1.398       .  A
C2265      F2272   1.357       .  S
C2266      C2267   1.400       .  A
C2266      H2271   1.083       .  S
C2267      C2268   1.402       .  A
C2268      F2269   1.356       .  S
C2273      C2274   1.409       .  A
C2273      C2278   1.399       .  A
C2273      H2280   1.082       .  S
C2274      C2275   1.408       .  A
C2275      C2276   1.391       .  A
C2275      F2282   1.357       .  S
C2276      C2277   1.401       .  A
C2276      H2281   1.083       .  S
C2277      C2278   1.401       .  A
C2278      F2279   1.358       .  S
C2283      C2284   1.414       .  A
C2283      C2288   1.411       .  A
C2283      H2290   1.081       .  S
C2284      C2285   1.416       .  A
C2285      C2286   1.379       .  A
C2285      F2292   1.356   1_565  S
C2286      C2287   1.398       .  A
C2286      H2291   1.084       .  S
C2287      C2288   1.410       .  A
C2288      F2289   1.357       .  S
C2293      C2294   1.409       .  A
C2293      C2298   1.401       .  A
C2293      H2300   1.083       .  S
C2294      C2295   1.408       .  A
C2295      C2296   1.399       .  A
C2295      F2302   1.355       .  S
C2296      C2297   1.403       .  A
C2296      H2301   1.083       .  S
C2297      C2298   1.404       .  A
C2298      F2299   1.357       .  S
C2303      C2304   1.399       .  A
C2303      C2308   1.399       .  A
C2303      H2310   1.084       .  S
C2304      C2305   1.401       .  A
C2305      C2306   1.395       .  A
C2305      F2312   1.354       .  S
C2306      C2307   1.406       .  A
C2306      H2311   1.082       .  S
C2307      C2308   1.417       .  A
C2308      F2309   1.355       .  S
C2313      C2314   1.412       .  A
C2313      C2318   1.419       .  A
C2313      H2320   1.082       .  S
C2314      C2315   1.421       .  A
C2315      C2316   1.383       .  A
C2315      F2322   1.358       .  S
C2316      C2317   1.398       .  A
C2316      H2321   1.083       .  S
C2317      C2318   1.416       .  A
C2318      F2319   1.356       .  S
C2323      C2324   1.406       .  A
C2323      C2328   1.401       .  A
C2323      H2330   1.074       .  S
C2324      C2325   1.406       .  A
C2325      C2326   1.402       .  A
C2325      F2332   1.358       .  S
C2326      C2327   1.408       .  A
C2326      H2331   1.083       .  S
C2327      C2328   1.406       .  A
C2328      F2329   1.357       .  S
C2333      C2334   1.409       .  A
C2333      C2338   1.389       .  A
C2333      H2340   1.078       .  S
C2334      C2335   1.415       .  A
C2335      C2336   1.400       .  A
C2335      F2342   1.357       .  S
C2336      C2337   1.399       .  A
C2336      H2341   1.083       .  S
C2337      C2338   1.398       .  A
C2338      F2339   1.357       .  S
C2343      C2344   1.403       .  A
C2343      C2348   1.393       .  A
C2343      H2350   1.083       .  S
C2344      C2345   1.414       .  A
C2345      C2346   1.407       .  A
C2345      F2352   1.356       .  S
C2346      C2347   1.404       .  A
C2346      H2351   1.083       .  S
C2347      C2348   1.404       .  A
C2348      F2349   1.356       .  S
