geometry optimzed in LAMMPS
_audit_creation_date              2020-12-01 
_audit_creation_method            'lammps2cif' 
_symmetry_space_group_name_H-M    'P1' 
_symmetry_Int_Tables_number       1 
_symmetry_cell_setting            triclinic 
loop_ 
_symmetry_equiv_pos_as_xyz 
  x,y,z 
_cell_length_a                    38.83164386 
_cell_length_b                    39.28746631363718 
_cell_length_c                    48.13092476125118 
_cell_angle_alpha                 90.14229363370352 
_cell_angle_beta                  89.79642862617457 
_cell_angle_gamma                 91.06424939507428 
loop_ 
_atom_site_label 
_atom_site_type_symbol 
_atom_site_fract_x 
_atom_site_fract_y 
_atom_site_fract_z 
_atom_site_charge 
C1          C  0.77079417  0.35804883  0.06092358     0.47000
H2          H  0.79335575  0.35109265  0.04820618    -0.02000
C3          C  0.71803521  0.37359441  0.09043915     0.47100
H4          H  0.69581265  0.37707837  0.10392962    -0.02000
C5          C  0.74417610  0.32880737  0.06305041    -0.15700
C6          C  0.78042972  0.36916322  0.09124577    -0.15500
C7          C  0.75064506  0.38694081  0.04753201    -0.15800
C8          C  0.71735741  0.33608702  0.08026490    -0.15800
C9          C  0.75171400  0.37840305  0.10712134    -0.15400
C10         C  0.72189636  0.39642704  0.06344981    -0.15700
O11         O  0.84010194  0.25304712  0.16187718    -0.56300
C12         C  0.85582257  0.17282824  0.11180525     0.76400
O13         O  0.91547734  0.29005690  0.12877703    -0.57400
C14         C  0.85293301  0.25806663  0.18569837     0.76300
C15         C  0.96088492  0.22059022  0.15453775     0.78700
Cd16       Cd  0.89171049  0.23161222  0.13845338     1.37500
O17         O  0.85170120  0.18031098  0.13717497    -0.56300
O18         O  0.93600854  0.21423710  0.17090187    -0.55100
C19         C  0.89217365  0.29840266  0.11211936     0.78700
O20         O  0.95371871  0.22613441  0.12931665    -0.57400
O21         O  0.87915245  0.19010225  0.09946474    -0.55900
O22         O  0.88345286  0.24810711  0.18872042    -0.55900
O23         O  0.87230647  0.27449723  0.10408014    -0.55000
C24         C  0.77025903  0.16843197  0.01341637     0.47000
H25         H  0.79486151  0.17923333  0.02004931    -0.02000
C26         C  0.71901641  0.13552118  0.99223870     0.47100
H27         H  0.69864453  0.11802478  0.48412523    -0.02000
C28         C  0.73793659  0.19107006  0.01316407    -0.15700
C29         C  0.77588268  0.15847591  0.98347735    -0.15500
C30         C  0.76132293  0.13624187  0.02977876    -0.15800
C31         C  0.70917263  0.17294975  0.00189235    -0.15800
C32         C  0.75168638  0.13525328  0.47337417    -0.15400
C33         C  0.73369959  0.11882958  0.01854002    -0.15700
O34         O  0.86961857  0.32308827  0.38139511    -0.56300
C35         C  0.84157725  0.37189702  0.46711664     0.76400
O36         O  0.88270090  0.27703741  0.45820669    -0.57400
C37         C  0.87698955  0.29151454  0.37965696     0.76300
C38         C  0.95995997  0.32672548  0.44462377     0.78700
Cd39       Cd  0.88803439  0.32932650  0.43208029     1.37500
O40         O  0.84518056  0.37901417  0.44138152    -0.56300
O41         O  0.95085441  0.34354308  0.42332967    -0.55100
C42         C  0.85313618  0.27053441  0.44826594     0.78700
O43         O  0.93603809  0.31801355  0.46105385    -0.57400
O44         O  0.86284715  0.35078625  0.47633558    -0.55900
O45         O  0.89576269  0.28053032  0.39890139    -0.55900
O46         O  0.84005927  0.29296181  0.43319548    -0.55000
C47         C  0.72007226  0.36401796  0.27461648     0.47000
H48         H  0.69870023  0.35140369  0.28609739    -0.02000
C49         C  0.77099226  0.39074355  0.24783740     0.47100
H50         H  0.79445878  0.39841199  0.23695724    -0.02000
C51         C  0.75066594  0.33944617  0.27076290    -0.15700
C52         C  0.70965627  0.37857620  0.24516231    -0.15500
C53         C  0.73544213  0.39436992  0.29057372    -0.15800
C54         C  0.77544503  0.35268345  0.25397289    -0.15800
C55         C  0.73776314  0.39212211  0.23012604    -0.15400
C56         C  0.76342169  0.41017722  0.27636262    -0.15700
O57         O  0.62109998  0.16249695  0.19580154    -0.56300
C58         C  0.62219844  0.24244490  0.13524981     0.76400
O59         O  0.54402789  0.22726900  0.21352424    -0.57400
C60         C  0.63626325  0.17128748  0.21807244     0.76300
C61         C  0.61747385  0.28879000  0.20748517     0.78700
Cd62       Cd  0.59695417  0.22207257  0.18814676     1.37500
O63         O  0.62847657  0.21274424  0.14410213    -0.56300
O64         O  0.63216369  0.27445777  0.18734287    -0.55100
C65         C  0.52366206  0.22345590  0.19336173     0.78700
O66         O  0.59534798  0.27091859  0.22051243    -0.57400
O67         O  0.59891703  0.25821739  0.14798267    -0.55900
O68         O  0.63282825  0.20186050  0.22557118    -0.55900
O69         O  0.53642176  0.21222585  0.17092272    -0.55000
C70         C  0.72894690  0.18204063  0.31216727     0.47000
H71         H  0.70711380  0.19544746  0.30274199    -0.02000
C72         C  0.77798248  0.14985631  0.33511248     0.47100
H73         H  0.79931904  0.13492021  0.34374081    -0.02000
C74         C  0.76448726  0.19994069  0.30775957    -0.15700
C75         C  0.72327149  0.17798385  0.34390025    -0.15500
C76         C  0.73181389  0.14656611  0.30011633    -0.15800
C77         C  0.79040509  0.18584513  0.32357867    -0.15800
C78         C  0.74898858  0.15802888  0.35627343    -0.15400
C79         C  0.75859270  0.12887105  0.31155164    -0.15700
O80         O  0.62310924  0.29280812  0.46111874    -0.56300
C81         C  0.64550564  0.36564722  0.38387542     0.76400
O82         O  0.58975953  0.27748698  0.37099248    -0.57400
C83         C  0.61587148  0.26156225  0.45593865     0.76300
C84         C  0.52900940  0.31842551  0.42370794     0.78700
Cd85       Cd  0.60092828  0.31310166  0.41295860     1.37500
O86         O  0.65139547  0.35632221  0.40872633    -0.56300
O87         O  0.55003814  0.33171967  0.44096290    -0.55100
C88         C  0.61811901  0.26263382  0.37444036     0.78700
O89         O  0.54117137  0.30958754  0.40044961    -0.57400
O90         O  0.61661877  0.35576986  0.37447764    -0.55900
O91         O  0.60136233  0.25620392  0.43293190    -0.55900
O92         O  0.63641743  0.27129550  0.39503993    -0.55000
C93         C  0.66594001  0.73180820  0.19957919     0.47000
H94         H  0.67987224  0.71412299  0.18626566    -0.02000
C95         C  0.63110903  0.77647722  0.22589805     0.47100
H96         H  0.61513666  0.79591465  0.23621985    -0.02000
C97         C  0.63039638  0.73423624  0.18740924    -0.15700
C98         C  0.66132674  0.72279744  0.23100626    -0.15500
C99         C  0.68239965  0.76757406  0.19897962    -0.15800
C100        C  0.61173925  0.75871753  0.20099758    -0.15800
C101        C  0.64271269  0.74748278  0.24582542    -0.15400
C102        C  0.66497500  0.79175286  0.21332493    -0.15700
O103        O  0.85388017  0.66132277  0.28713138    -0.56300
C104        C  0.76852544  0.64464506  0.34278072     0.76400
O105        O  0.75220426  0.59449558  0.27130742    -0.57400
C106        C  0.84814023  0.66396145  0.26124943     0.76300
C107        C  0.81776729  0.54760414  0.29705932     0.78700
Cd108      Cd  0.80290068  0.61831467  0.29609059     1.37500
O109        O  0.80054148  0.65134821  0.33950852    -0.56300
O110        O  0.82196192  0.56482248  0.31920303    -0.55100
C111        C  0.73594185  0.62200249  0.27309318     0.78700
O112        O  0.81314180  0.56439654  0.27510456    -0.57400
O113        O  0.75669066  0.61907720  0.32995726    -0.55900
O114        O  0.82302336  0.64605856  0.25245671    -0.55900
O115        O  0.75130316  0.64717978  0.28413632    -0.55000
C116        C  0.83937048  0.74178715  0.15813112     0.47000
H117        H  0.82473237  0.72634499  0.17281591    -0.02000
C118        C  0.87107772  0.78619111  0.12777524     0.47100
H119        H  0.88465009  0.80599069  0.11533823    -0.02000
C120        C  0.87435006  0.75050872  0.17026141    -0.15700
C121        C  0.84758705  0.72713359  0.12898490    -0.15500
C122        C  0.81944109  0.77473938  0.15369219    -0.15800
C123        C  0.89139141  0.77501483  0.15444006    -0.15800
C124        C  0.86322683  0.75205072  0.11161644    -0.15400
C125        C  0.83560629  0.79887948  0.13800701    -0.15700
O126        O  0.68219626  0.62575925  0.10162239    -0.56300
C127        C  0.73878392  0.63103312  0.00635021     0.76400
O128        O  0.75775445  0.59466672  0.08472501    -0.57400
C129        C  0.66110026  0.64812852  0.09448556     0.76300
C130        C  0.69286199  0.53659567  0.05481493     0.78700
Cd131      Cd  0.70725210  0.60792430  0.05666522     1.37500
O132        O  0.75478597  0.61234288  0.02294986    -0.56300
O133        O  0.67971673  0.55561481  0.03655872    -0.55100
C134        C  0.77008295  0.62453275  0.08211139     0.78700
O135        O  0.71020196  0.55109982  0.07365625    -0.57400
O136        O  0.70625024  0.63255993  0.00968786    -0.55900
O137        O  0.65906936  0.65216454  0.06835588    -0.55900
O138        O  0.75377982  0.64530148  0.06738662    -0.55000
C139        C  0.65702200  0.79730142  0.41104257     0.47000
H140        H  0.66907433  0.81719841  0.42390659    -0.02000
C141        C  0.63135311  0.74704115  0.38296705     0.47100
H142        H  0.61934463  0.72573594  0.37116688    -0.02000
C143        C  0.62836093  0.77943958  0.42727387    -0.15700
C144        C  0.64054224  0.80887771  0.38268592    -0.15500
C145        C  0.68358816  0.76948961  0.40428290    -0.15800
C146        C  0.61388511  0.75276830  0.41225924    -0.15800
C147        C  0.62867620  0.78062553  0.36680932    -0.15400
C148        C  0.67087867  0.74385796  0.38743885    -0.15700
O149        O  0.84032054  0.88039699  0.32630560    -0.56300
C150        C  0.76242212  0.87991123  0.27020664     0.76400
O151        O  0.73991653  0.91538114  0.35632902    -0.57400
C152        C  0.83438101  0.87349362  0.35164321     0.76300
C153        C  0.79664112  0.98665566  0.31575480     0.78700
Cd154      Cd  0.78539140  0.91450298  0.31954177     1.37500
O155        O  0.78158844  0.86599352  0.28799857    -0.56300
O156        O  0.80974326  0.96784510  0.29722891    -0.55100
C157        C  0.71474551  0.90805801  0.34060107     0.78700
O158        O  0.78537630  0.97195838  0.33729820    -0.57400
O159        O  0.76012025  0.91192579  0.27204075    -0.55900
O160        O  0.80739622  0.88612001  0.36182399    -0.55900
O161        O  0.72219440  0.90417652  0.31537084    -0.55000
C162        C  0.84820941  0.79318748  0.45697954     0.47000
H163        H  0.84028383  0.81904400  0.45366580    -0.02000
C164        C  0.87105160  0.73441159  0.46977531     0.47100
H165        H  0.88170842  0.70924747  0.47487594    -0.02000
C166        C  0.87769390  0.78469435  0.43835781    -0.15700
C167        C  0.86033207  0.79065181  0.48757278    -0.15500
C168        C  0.82147607  0.76451161  0.45127822    -0.15800
C169        C  0.89148956  0.75339782  0.44533188    -0.15800
C170        C  0.87229764  0.75907329  0.49492851    -0.15400
C171        C  0.83181964  0.73322607  0.46131090    -0.15700
O172        O  0.68149843  0.85450101  0.02357357    -0.56300
C173        C  0.72851416  0.88584937  0.09659409     0.76400
O174        O  0.76191602  0.90412001  0.04217416    -0.57400
C175        C  0.65042967  0.85929280  0.01740943     0.76300
C176        C  0.69037470  0.97944657  0.03938778     0.78700
Cd177      Cd  0.69837650  0.90884335  0.04555310     1.37500
O178        O  0.70123086  0.87135039  0.08744078    -0.56300
O179        O  0.68311881  0.96662642  0.06292532    -0.55100
C180        C  0.76245393  0.89845825  0.01648547     0.78700
O181        O  0.69274346  0.95911864  0.01916666    -0.57400
O182        O  0.73517999  0.91521626  0.08724786    -0.55900
O183        O  0.63851478  0.88696037  0.02691690    -0.55900
O184        O  0.73479351  0.90382324  0.00355684    -0.55000
C185        C  0.34070747  0.31287126  0.21469280     0.47000
H186        H  0.32680634  0.33102653  0.20165161    -0.02000
C187        C  0.37101765  0.26776341  0.24413845     0.47100
H188        H  0.38426018  0.24792990  0.25586166    -0.02000
C189        C  0.36891167  0.29620879  0.19791947    -0.15700
C190        C  0.35896772  0.32861689  0.24143592    -0.15500
C191        C  0.31652637  0.28280642  0.22398414    -0.15800
C192        C  0.38583897  0.27248360  0.21370384    -0.15800
C193        C  0.37263191  0.30286736  0.25873122    -0.15400
C194        C  0.33198103  0.26035831  0.24155910    -0.15700
O195        O  0.19348254  0.36350323  0.28451207    -0.56300
C196        C  0.23032303  0.39570753  0.36279791     0.76400
O197        O  0.27949620  0.41754217  0.30583889    -0.57400
C198        C  0.16418282  0.37343105  0.27656153     0.76300
C199        C  0.19567866  0.48913923  0.30902669     0.78700
Cd200      Cd  0.21493606  0.41950398  0.30658373     1.37500
O201        O  0.20597653  0.38284472  0.34846464    -0.56300
O202        O  0.18869546  0.46921789  0.32897789    -0.55100
C203        C  0.28411759  0.42303318  0.28032643     0.78700
O204        O  0.20839792  0.47594875  0.28747037    -0.57400
O205        O  0.24421239  0.42232660  0.35284161    -0.55900
O206        O  0.15773251  0.40397800  0.28294368    -0.55900
O207        O  0.25671573  0.42700695  0.26661756    -0.55000
C208        C  0.15020931  0.29711946  0.17990288     0.47000
H209        H  0.15670709  0.32188103  0.18773667    -0.02000
C210        C  0.12623995  0.24442291  0.15545761     0.47100
H211        H  0.11684487  0.22242748  0.14335884    -0.02000
C212        C  0.11566514  0.28684500  0.19174763    -0.15700
C213        C  0.14784584  0.30142880  0.14860328    -0.15500
C214        C  0.17353230  0.26688828  0.18522284    -0.15800
C215        C  0.10121470  0.25803671  0.17885722    -0.15800
C216        C  0.13398600  0.27418277  0.13496180    -0.15400
C217        C  0.16137165  0.23798878  0.17062976    -0.15700
O218        O  0.29905153  0.36103192  0.09831466    -0.56300
C219        C  0.23825926  0.38885023  0.02627465     0.76400
O220        O  0.22598299  0.39855088  0.08638064    -0.57400
C221        C  0.33153477  0.36326442  0.09833548     0.76300
C222        C  0.29109703  0.48441179  0.07393802     0.78700
Cd223      Cd  0.28363646  0.41191620  0.07161887     1.37500
O224        O  0.26857120  0.37701324  0.02758766    -0.56300
O225        O  0.29540560  0.46982614  0.05060365    -0.55100
C226        C  0.23054202  0.40562130  0.11161877     0.78700
O227        O  0.29159270  0.46547020  0.09501822    -0.57400
O228        O  0.23254505  0.41371448  0.04213395    -0.55900
O229        O  0.34402312  0.38698470  0.08310950    -0.55900
O230        O  0.25917213  0.41909094  0.11825448    -0.55000
C231        C  0.33414623  0.25173269  0.41763832     0.47000
H232        H  0.31922391  0.22809225  0.42161070    -0.02000
C233        C  0.36781238  0.30734430  0.40647845     0.47100
H234        H  0.38230470  0.33138741  0.40251875    -0.02000
C235        C  0.36434819  0.25615264  0.43766316    -0.15700
C236        C  0.34925520  0.25347508  0.38725666    -0.15500
C237        C  0.31259037  0.28386213  0.42227258    -0.15800
C238        C  0.38386283  0.28542767  0.43083854    -0.15800
C239        C  0.36698031  0.28305391  0.38077065    -0.15400
C240        C  0.32924694  0.31366903  0.41511395    -0.15700
O241        O  0.14904498  0.15836655  0.34004847    -0.56300
C242        C  0.23864845  0.15880013  0.29273030     0.76400
O243        O  0.23628486  0.14915039  0.37235212    -0.57400
C244        C  0.14985065  0.15845010  0.36652209     0.76300
C245        C  0.20087789  0.05176242  0.33112828     0.78700
Cd246      Cd  0.20326035  0.12241598  0.33569567     1.37500
O247        O  0.20727807  0.16508475  0.29827885    -0.56300
O248        O  0.18981964  0.06882257  0.31077310    -0.55100
C249        C  0.26450061  0.14610956  0.35941742     0.78700
O250        O  0.20370620  0.06688412  0.35421204    -0.57400
O251        O  0.24941019  0.13112435  0.30212530    -0.55900
O252        O  0.17328160  0.14083823  0.37730225    -0.55900
O253        O  0.26580244  0.12354448  0.34088788    -0.55000
C254        C  0.15279853  0.24796650  0.46421841     0.47000
H255        H  0.16819732  0.22917769  0.45268100    -0.02000
C256        C  0.11561025  0.29181085  0.48933725     0.47100
H257        H  0.09722383  0.30922008  0.49881350    -0.02000
C258        C  0.11771062  0.25145812  0.45022467    -0.15700
C259        C  0.14480748  0.23778597  0.49462657    -0.15500
C260        C  0.17067668  0.28396808  0.46618457    -0.15800
C261        C  0.09836471  0.27583272  0.46311376    -0.15800
C262        C  0.12564862  0.26201280  0.50870877    -0.15400
C263        C  0.15073871  0.30789611  0.48014002    -0.15700
O264        O  0.32305312  0.14368651  0.05167752    -0.56300
C265        C  0.25564686  0.14151222  0.12348491     0.76400
O266        O  0.21685573  0.08696552  0.04941019    -0.57400
C267        C  0.30910176  0.15359942  0.02938628     0.76300
C268        C  0.28768043  0.03854065  0.06734522     0.78700
Cd269      Cd  0.26994066  0.11022376  0.07077674     1.37500
O270        O  0.28284555  0.14946763  0.11013999    -0.56300
O271        O  0.26943565  0.05395047  0.05001831    -0.55100
C272        C  0.19903647  0.11301436  0.05386129     0.78700
O273        O  0.29962579  0.05658413  0.08716843    -0.57400
O274        O  0.24070366  0.11402613  0.11637629    -0.55900
O275        O  0.27813356  0.14383684  0.02632256    -0.55900
O276        O  0.21312587  0.13673310  0.06780627    -0.55000
C277        C  0.23097187  0.85653154  0.04226641     0.47000
H278        H  0.20497901  0.85240119  0.05075719    -0.02000
C279        C  0.29120594  0.87105601  0.02265151     0.47100
H280        H  0.31731740  0.87726048  0.01521484    -0.02000
C281        C  0.25433739  0.82573835  0.04327425    -0.15700
C282        C  0.23044352  0.86812601  0.01154179    -0.15500
C283        C  0.24950308  0.88404608  0.05909132    -0.15800
C284        C  0.28609525  0.83194168  0.03076882    -0.15800
C285        C  0.26992114  0.88499919  0.49834666    -0.15400
C286        C  0.28133576  0.89373525  0.04851444    -0.15700
O287        O  0.13474696  0.74439991  0.40363380    -0.56300
C288        C  0.14968057  0.67457581  0.47420921     0.76400
O289        O  0.10405461  0.78348891  0.47230760    -0.57400
C290        C  0.12494679  0.77508718  0.40633807     0.76300
C291        C  0.03526802  0.71635642  0.44702119     0.78700
Cd292      Cd  0.10696857  0.72693640  0.44994966     1.37500
O293        O  0.15475472  0.68409060  0.44920342    -0.56300
O294        O  0.05369404  0.70620136  0.42690212    -0.55100
C295        C  0.13446614  0.78117026  0.48108551     0.78700
O296        O  0.05046668  0.72333430  0.46962612    -0.57400
O297        O  0.12245979  0.68510816  0.48574319    -0.55900
O298        O  0.10399096  0.78046814  0.42577802    -0.55900
O299        O  0.14680235  0.75174722  0.48234424    -0.55000
C300        C  0.20384764  0.66627538  0.09462991     0.47000
H301        H  0.18109863  0.67566816  0.08459828    -0.02000
C302        C  0.25745879  0.64174687  0.11779670     0.47100
H303        H  0.28108579  0.63121719  0.12714717    -0.02000
C304        C  0.23207492  0.69417624  0.09850025    -0.15700
C305        C  0.19614725  0.65007659  0.12386035    -0.15500
C306        C  0.21918932  0.63820003  0.07702661    -0.15800
C307        C  0.26049230  0.68079352  0.11183802    -0.15800
C308        C  0.22566696  0.63791535  0.13726756    -0.15400
C309        C  0.24750795  0.62434734  0.08936891    -0.15700
O310        O  0.15450736  0.79122185  0.19412355    -0.56300
C311        C  0.14756128  0.86360751  0.13688396     0.76400
O312        O  0.11665315  0.76430695  0.13446616    -0.57400
C313        C  0.13939047  0.78885394  0.21745539     0.76300
C314        C  0.03391550  0.81645094  0.16691831     0.78700
Cd315      Cd  0.10660033  0.81186308  0.16763907     1.37500
O316        O  0.13312942  0.83833928  0.12513737    -0.56300
O317        O  0.04998468  0.83096090  0.18670112    -0.55100
C318        C  0.11148471  0.74114097  0.15244061     0.78700
O319        O  0.05156519  0.80622212  0.14657805    -0.57400
O320        O  0.14094781  0.86709483  0.16260101    -0.55900
O321        O  0.11010442  0.80257569  0.21923697    -0.55900
O322        O  0.10281110  0.75094950  0.17626477    -0.55000
C323        C  0.26571757  0.67198847  0.30344374     0.47000
H324        H  0.29078072  0.67761586  0.31285286    -0.02000
C325        C  0.20973656  0.65524297  0.27815677     0.47100
H326        H  0.18603225  0.65088285  0.26655585    -0.02000
C327        C  0.23824618  0.69985952  0.30601989    -0.15700
C328        C  0.27095251  0.66322692  0.27203426    -0.15500
C329        C  0.24815731  0.64126347  0.31691123    -0.15800
C330        C  0.21041086  0.69275148  0.28907677    -0.15800
C331        C  0.24121589  0.65209977  0.25891946    -0.15400
C332        C  0.21732891  0.63141002  0.30376725    -0.15700
O333        O  0.38553608  0.75076125  0.18180941    -0.56300
C334        C  0.36712645  0.85660143  0.23700087     0.76400
O335        O  0.39581170  0.77016498  0.25654831    -0.57400
C336        C  0.36295489  0.76630737  0.16832766     0.76300
C337        C  0.47413431  0.80259077  0.19591078     0.78700
Cd338      Cd  0.40477865  0.79899710  0.21114881     1.37500
O339        O  0.36366327  0.84876861  0.21156342    -0.56300
O340        O  0.45209242  0.81048215  0.17790562    -0.55100
C341        C  0.39172106  0.74103812  0.24554991     0.78700
O342        O  0.46449041  0.80082408  0.22087610    -0.57400
O343        O  0.39002644  0.84022285  0.24968398    -0.55900
O344        O  0.36103691  0.79806150  0.17300998    -0.55900
O345        O  0.40201136  0.73782439  0.22090306    -0.55000
C346        C  0.28046387  0.86262593  0.33359648     0.47000
H347        H  0.30012037  0.85033351  0.32120244    -0.02000
C348        C  0.23717177  0.89876423  0.36045830     0.47100
H349        H  0.21860882  0.91538774  0.37068837    -0.02000
C350        C  0.24605501  0.84271553  0.33828182    -0.15700
C351        C  0.29279571  0.87161506  0.36299340    -0.15500
C352        C  0.27328290  0.89570590  0.31870819    -0.15800
C353        C  0.22146900  0.86288044  0.35270698    -0.15800
C354        C  0.27062530  0.89229334  0.37774267    -0.15400
C355        C  0.24977355  0.91483984  0.33283074    -0.15700
O356        O  0.38357474  0.70804410  0.47721707    -0.56300
C357        C  0.35015071  0.64988786  0.39996720     0.76400
O358        O  0.35721878  0.74077781  0.42162022    -0.57400
C359        C  0.38607541  0.74055673  0.47679582     0.76300
C360        C  0.47274088  0.70076695  0.42316269     0.78700
Cd361      Cd  0.39902900  0.70018315  0.42663316     1.37500
O362        O  0.34875999  0.65683923  0.42574957    -0.56300
O363        O  0.45855896  0.68557991  0.44364321    -0.55100
C364        C  0.36819470  0.75520914  0.39996458     0.78700
O365        O  0.45319145  0.70852293  0.40329118    -0.57400
O366        O  0.37722126  0.66072147  0.38793855    -0.55900
O367        O  0.40039562  0.75324980  0.45551366    -0.55900
O368        O  0.39513522  0.74324144  0.38899669    -0.55000
C369        C  0.31451031  0.84517937  0.37619785    -0.03800
C370        C  0.34949756  0.84161510  0.36856691    -0.00900
C371        C  0.36719514  0.81168201  0.37520976     0.04100
C372        C  0.34994885  0.78511601  0.38954517    -0.03800
C373        C  0.31481420  0.78828616  0.39638097    -0.00900
C374        C  0.29784494  0.81849423  0.39080500     0.04100
C375        C  0.36769739  0.86796124  0.35327199     0.38700
C376        C  0.29464389  0.75905554  0.40618275     0.38700
C377        C  0.26189919  0.82001703  0.39779988     0.37200
C378        C  0.40196969  0.80732681  0.36484281     0.37200
N379        N  0.23320991  0.81966065  0.40387628    -0.37700
N380        N  0.42924910  0.80407256  0.35556578    -0.37700
N381        N  0.27840961  0.73568982  0.41333133    -0.37100
N382        N  0.38469482  0.88804189  0.34196706    -0.37100
C383        C  0.29392238  0.90344589  0.29241341    -0.03800
C384        C  0.32937567  0.91253680  0.29456180    -0.00900
C385        C  0.35399325  0.89901637  0.27572471     0.04100
C386        C  0.34312656  0.88022230  0.25230429    -0.03800
C387        C  0.30773611  0.88065311  0.24596888    -0.00900
C388        C  0.28325183  0.88892310  0.26680380     0.04100
C389        C  0.34087343  0.93713413  0.31492648     0.38700
C390        C  0.29718427  0.87538094  0.21755521     0.38700
C391        C  0.24756608  0.87994855  0.26233896     0.37200
C392        C  0.39045643  0.90606174  0.27942398     0.37200
N393        N  0.21930910  0.87196091  0.25803235    -0.37700
N394        N  0.41958984  0.91178753  0.28217530    -0.37700
N395        N  0.29050522  0.87327295  0.19422806    -0.37100
N396        N  0.35264195  0.95739043  0.32974976    -0.37100
C397        C  0.24018052  0.73102531  0.32535352    -0.03800
C398        C  0.27148398  0.74601932  0.33396662    -0.00900
C399        C  0.27505295  0.78190331  0.33486378     0.04100
C400        C  0.24524568  0.80357610  0.33374563    -0.03800
C401        C  0.21402772  0.78686691  0.32737390    -0.00900
C402        C  0.21095551  0.75118135  0.32903608     0.04100
C403        C  0.30046828  0.72568090  0.34226683     0.38700
C404        C  0.19369954  0.80276562  0.30625472     0.38700
C405        C  0.17813748  0.73502458  0.33503268     0.37200
C406        C  0.30932443  0.79290735  0.32662826     0.37200
N407        N  0.15279248  0.72077904  0.34083013    -0.37700
N408        N  0.33659902  0.79904420  0.31794984    -0.37700
N409        N  0.17857383  0.81594608  0.28879059    -0.37100
N410        N  0.32413026  0.71048502  0.34935616    -0.37100
C411        C  0.30300717  0.67666388  0.25780808    -0.03800
C412        C  0.30230936  0.70981130  0.24691933    -0.00900
C413        C  0.33081200  0.73161639  0.24879768     0.04100
C414        C  0.36325491  0.71867600  0.25471405    -0.03800
C415        C  0.36623529  0.68360710  0.26010246    -0.00900
C416        C  0.33587949  0.66304632  0.26338184     0.04100
C417        C  0.27520926  0.72139307  0.22949984     0.38700
C418        C  0.40007393  0.66887644  0.26176485     0.38700
C419        C  0.33908259  0.62714709  0.26870707     0.37200
C420        C  0.32694096  0.76728929  0.24140459     0.37200
N421        N  0.34344391  0.59836859  0.27172799    -0.37700
N422        N  0.32266579  0.79548571  0.23594868    -0.37700
N423        N  0.42709358  0.65700219  0.26278704    -0.37100
N424        N  0.25655222  0.73511123  0.21485964    -0.37100
C425        C  0.26569615  0.62895890  0.34312671    -0.03800
C426        C  0.26125789  0.64700062  0.36840874    -0.00900
C427        C  0.28626579  0.64540959  0.38967250     0.04100
C428        C  0.31993775  0.63468365  0.38367659    -0.03800
C429        C  0.32401606  0.61477606  0.35929047    -0.00900
C430        C  0.29572695  0.60936137  0.34074395     0.04100
C431        C  0.23196276  0.66866455  0.37258421     0.38700
C432        C  0.35668913  0.59902058  0.35377492     0.38700
C433        C  0.29622821  0.58243143  0.32029240     0.37200
C434        C  0.27623578  0.65126118  0.41808223     0.37200
N435        N  0.29556411  0.55987022  0.30478919    -0.37700
N436        N  0.26769606  0.65315716  0.44102305    -0.37700
N437        N  0.38287883  0.58643779  0.34942707    -0.37100
N438        N  0.20855636  0.68569707  0.37689229    -0.37100
C439        C  0.19033391  0.72071100  0.27449979    -0.03800
C440        C  0.20770699  0.74920216  0.26232646    -0.00900
C441        C  0.19095951  0.77065894  0.24365674     0.04100
C442        C  0.15521490  0.76877073  0.24030112    -0.03800
C443        C  0.13634068  0.74414590  0.25590422    -0.00900
C444        C  0.15392634  0.71892930  0.27145446     0.04100
C445        C  0.24183769  0.76020669  0.27035789     0.38700
C446        C  0.09908254  0.74364901  0.25488690     0.38700
C447        C  0.13440230  0.69144660  0.28434167     0.37200
C448        C  0.21089198  0.79687525  0.22962504     0.37200
N449        N  0.11867887  0.66958832  0.29469412    -0.37700
N450        N  0.22820100  0.81730037  0.21923820    -0.37700
N451        N  0.06929241  0.74345986  0.25417790    -0.37100
N452        N  0.26826610  0.77226767  0.27581221    -0.37100
C453        C  0.23109956  0.63484871  0.16898735    -0.03800
C454        C  0.24406991  0.66355585  0.18241686    -0.00900
C455        C  0.23123333  0.66818036  0.20915099     0.04100
C456        C  0.23778103  0.64280568  0.22825210    -0.03800
C457        C  0.23940292  0.60945498  0.21632049    -0.00900
C458        C  0.23427481  0.60504739  0.18639939     0.04100
C459        C  0.28148118  0.66562073  0.18151771     0.38700
C460        C  0.24574423  0.58074998  0.23413761     0.38700
C461        C  0.23686466  0.57151527  0.17465352     0.37200
C462        C  0.20053215  0.68724743  0.21228643     0.37200
N463        N  0.24024182  0.54394300  0.16678858    -0.37700
N464        N  0.17595971  0.70312685  0.21351632    -0.37700
N465        N  0.25095547  0.55775918  0.24839484    -0.37100
N466        N  0.31130132  0.66661923  0.18160523    -0.37100
C467        C  0.11789391  0.70478905  0.14671741    -0.03800
C468        C  0.11724865  0.69181470  0.11959740    -0.00900
C469        C  0.13382583  0.66104043  0.11462140     0.04100
C470        C  0.15894265  0.65031761  0.13373414    -0.03800
C471        C  0.14983870  0.65515970  0.16159810    -0.00900
C472        C  0.12723371  0.68205295  0.16811909     0.04100
C473        C  0.09778835  0.70818375  0.09795537     0.38700
C474        C  0.15398027  0.62701125  0.18035130     0.38700
C475        C  0.10920042  0.68269003  0.19444071     0.37200
C476        C  0.12248103  0.63910267  0.09233205     0.37200
N477        N  0.09423642  0.68226280  0.21525606    -0.37700
N478        N  0.11066074  0.62178784  0.07528185    -0.37700
N479        N  0.15632355  0.60361160  0.19469925    -0.37100
N480        N  0.08220706  0.72124276  0.08066019    -0.37100
C481        C  0.28796846  0.70260992  0.12552510    -0.03800
C482        C  0.27823577  0.72664111  0.14592901    -0.00900
C483        C  0.30242741  0.75048653  0.15624286     0.04100
C484        C  0.33772073  0.74706067  0.15068989    -0.03800
C485        C  0.34821401  0.72138032  0.13201947    -0.00900
C486        C  0.32338017  0.69961554  0.11909489     0.04100
C487        C  0.24265479  0.72773336  0.15548908     0.38700
C488        C  0.38445342  0.71820795  0.12534980     0.38700
C489        C  0.33470203  0.67332795  0.10029909     0.37200
C490        C  0.29079541  0.77931186  0.17196266     0.37200
N491        N  0.34482438  0.65218415  0.08583605    -0.37700
N492        N  0.28185985  0.80306491  0.18387409    -0.37700
N493        N  0.41336626  0.71585466  0.11989679    -0.37100
N494        N  0.21399937  0.72940194  0.16199924    -0.37100
C495        C  0.17588009  0.65602738  0.49105697    -0.03800
C496        C  0.15558593  0.62239462  0.01777211    -0.00900
C497        C  0.17743727  0.61331464  0.04029882     0.04100
C498        C  0.20670188  0.63372671  0.04719642    -0.03800
C499        C  0.21765224  0.65820657  0.02747263    -0.00900
C500        C  0.20848823  0.67126225  0.49571787     0.04100
C501        C  0.12354598  0.60389602  0.01298564     0.38700
C502        C  0.24765772  0.67915080  0.03383561     0.38700
C503        C  0.22169904  0.69576767  0.47608234     0.37200
C504        C  0.17005313  0.58229043  0.05535374     0.37200
N505        N  0.23260614  0.71426029  0.45953180    -0.37700
N506        N  0.16299811  0.55665117  0.06589371    -0.37700
N507        N  0.27128818  0.69542155  0.04067133    -0.37100
N508        N  0.09783494  0.58927016  0.00923064    -0.37100
C509        C  0.14048824  0.80454272  0.39072441    -0.03800
C510        C  0.14140936  0.80659524  0.36164170    -0.00900
C511        C  0.16024638  0.83399112  0.34929323     0.04100
C512        C  0.18591779  0.85107640  0.36488107    -0.03800
C513        C  0.17404270  0.85794759  0.39234192    -0.00900
C514        C  0.15025760  0.83471064  0.40497379     0.04100
C515        C  0.11655999  0.78704628  0.34557093     0.38700
C516        C  0.17570885  0.89168218  0.40399302     0.38700
C517        C  0.12900406  0.84609420  0.42787447     0.37200
C518        C  0.14268457  0.85328901  0.32831009     0.37200
N519        N  0.11053918  0.85638006  0.44469076    -0.37700
N520        N  0.12675001  0.86779983  0.31206749    -0.37700
N521        N  0.17221008  0.91804743  0.41421310    -0.37100
N522        N  0.09641843  0.77176835  0.33270208    -0.37100
C523        C  0.22941037  0.73135849  0.08778730    -0.03800
C524        C  0.20563153  0.74380345  0.06762789    -0.00900
C525        C  0.21019338  0.77776469  0.05772498     0.04100
C526        C  0.24388444  0.79367272  0.05893997    -0.03800
C527        C  0.26707704  0.77779470  0.07723599    -0.00900
C528        C  0.25194749  0.75732244  0.09749586     0.04100
C529        C  0.17661807  0.72458058  0.05674115     0.38700
C530        C  0.30219684  0.78893180  0.08179658     0.38700
C531        C  0.23581698  0.77966820  0.11772429     0.37200
C532        C  0.17914848  0.79634468  0.05349166     0.37200
N533        N  0.22205693  0.79736632  0.13330290    -0.37700
N534        N  0.16125229  0.81935637  0.55279188    -0.37700
N535        N  0.33051044  0.79692356  0.08611809    -0.37100
N536        N  0.15303936  0.71044575  0.04721085    -0.37100
C537        C  0.27520614  0.89528242  0.46776486    -0.03800
C538        C  0.30472364  0.88641217  0.45172145    -0.00900
C539        C  0.30605998  0.89365549  0.42303054     0.04100
C540        C  0.27590419  0.90200448  0.40860941    -0.03800
C541        C  0.25227662  0.92063406  0.42469324    -0.00900
C542        C  0.25113887  0.91640800  0.45412902     0.04100
C543        C  0.33460922  0.87048219  0.46332175     0.38700
C544        C  0.23680521  0.95035303  0.41262273     0.38700
C545        C  0.22817781  0.93711188  0.47048924     0.37200
C546        C  0.33914281  0.90309692  0.41110412     0.37200
N547        N  0.21028085  0.95443841  0.48327807    -0.37700
N548        N  0.36584206  0.91212484  0.40295945    -0.37700
N549        N  0.22450816  0.97454210  0.40359643    -0.37100
N550        N  0.35986678  0.85828585  0.47063465    -0.37100
C551        C  0.20911404  0.86092054  0.49259460    -0.03800
C552        C  0.21542585  0.83336152  0.47442453    -0.00900
C553        C  0.18922291  0.80952976  0.46886102     0.04100
C554        C  0.15772144  0.81097612  0.48328161    -0.03800
C555        C  0.14896872  0.84124446  0.49689932    -0.00900
C556        C  0.16713956  0.85898683  0.00195025     0.04100
C557        C  0.24947123  0.82587577  0.46420724     0.38700
C558        C  0.10767629  0.83621322  0.00945720     0.38700
C559        C  0.15644700  0.89090328  0.01368878     0.37200
C560        C  0.19459355  0.78343042  0.44792898     0.37200
N561        N  0.14518877  0.91606336  0.02186933    -0.37700
N562        N  0.19843039  0.76325292  0.43071377    -0.37700
N563        N  0.08026755  0.83890203  0.01863178    -0.37100
N564        N  0.27632626  0.81793194  0.45631775    -0.37100
C565        C  0.23090582  0.89630223  0.08470883    -0.03800
C566        C  0.23617088  0.87992318  0.11048213    -0.00900
C567        C  0.20939264  0.87835934  0.13030954     0.04100
C568        C  0.17533400  0.88375642  0.12223470    -0.03800
C569        C  0.17009427  0.90256522  0.09772126    -0.00900
C570        C  0.19898449  0.91232172  0.08107044     0.04100
C571        C  0.26684425  0.86095593  0.11592400     0.38700
C572        C  0.13567755  0.91217184  0.09003748     0.38700
C573        C  0.19715873  0.94004722  0.06159245     0.37200
C574        C  0.21615724  0.87122774  0.15903573     0.37200
N575        N  0.19639326  0.96336090  0.04699059    -0.37700
N576        N  0.21961513  0.86772830  0.18262391    -0.37700
N577        N  0.10806687  0.91967060  0.08385101    -0.37100
N578        N  0.29076702  0.84534796  0.12157724    -0.37100
C579        C  0.30961872  0.80309757  0.02019836    -0.03800
C580        C  0.34609251  0.80713826  0.01999907    -0.00900
C581        C  0.37847873  0.79279829  0.50867847     0.04100
C582        C  0.36530552  0.76287689  0.49581539    -0.03800
C583        C  0.31807424  0.74666440  0.99762598    -0.00900
C584        C  0.29620780  0.77147027  0.00924320     0.04100
C585        C  0.36219401  0.83538965  0.03473377     0.38700
C586        C  0.30431641  0.71389936  0.98848962     0.38700
C587        C  0.25983076  0.76459070  0.00666323     0.37200
C588        C  0.41533704  0.79901180  0.50876080     0.37200
N589        N  0.23087701  0.75830969  0.00391577    -0.37700
N590        N  0.44480160  0.80401519  0.50877747    -0.37700
N591        N  0.30605175  0.70261294  0.47116611    -0.37100
N592        N  0.37510589  0.85788332  0.04656091    -0.37100
C593        C  0.29420555  0.00135252  0.06359844    -0.03800
C594        C  0.29992097  0.98829675  0.03664376    -0.00900
C595        C  0.30225306  0.95285308  0.03210130     0.04100
C596        C  0.29613664  0.92950319  0.05408731    -0.03800
C597        C  0.29801413  0.94310210  0.08134876    -0.00900
C598        C  0.29482942  0.97852325  0.08616520     0.04100
C599        C  0.30479024  0.01144951  0.01340333     0.38700
C600        C  0.31229894  0.92287085  0.10328072     0.38700
C601        C  0.29143267  0.99103231  0.11438071     0.37200
C602        C  0.31294240  0.95489357  0.50038345     0.37200
N603        N  0.28851293  0.00083734  0.13694621    -0.37700
N604        N  0.32421127  0.95110061  0.47834672    -0.37700
N605        N  0.32608936  0.90895912  0.12111586    -0.37100
N606        N  0.28965667  0.04080703  0.49211699    -0.37100
C607        C  0.15834573  0.20457737  0.50584412    -0.03800
C608        C  0.18831247  0.19031976  0.49362911    -0.00900
C609        C  0.17401860  0.12721812  0.01047401     0.04100
C610        C  0.16734151  0.11930439  0.03814024    -0.03800
C611        C  0.13939543  0.13532560  0.05100580    -0.00900
C612        C  0.12408788  0.16361540  0.03787274     0.04100
C613        C  0.21640880  0.21107911  0.48302580     0.38700
C614        C  0.12655363  0.12215834  0.07716935     0.38700
C615        C  0.09042419  0.17409987  0.04691825     0.37200
C616        C  0.22247666  0.14003356  0.48174975     0.37200
N617        N  0.06300502  0.18072306  0.05439311    -0.37700
N618        N  0.24281946  0.12696758  0.46792938    -0.37700
N619        N  0.11625349  0.11157466  0.09808372    -0.37100
N620        N  0.24165119  0.22497280  0.47661374    -0.37100
C621        C  0.24092643  0.95056403  0.32674388    -0.03800
C622        C  0.25855297  0.97669806  0.34128103    -0.00900
C623        C  0.24642354  0.01000788  0.34076533     0.04100
C624        C  0.21459657  0.01715461  0.32803027    -0.03800
C625        C  0.19723721  0.99151754  0.31286884    -0.00900
C626        C  0.21044281  0.95825906  0.31218209     0.04100
C627        C  0.28682768  0.96925564  0.35976794     0.38700
C628        C  0.16494155  0.99882548  0.29923959     0.38700
C629        C  0.19094841  0.93193926  0.29799453     0.37200
C630        C  0.26704226  0.03683246  0.35380119     0.37200
N631        N  0.17385472  0.91243080  0.28617036    -0.37700
N632        N  0.28382165  0.05772241  0.36438351    -0.37700
N633        N  0.13915168  0.00451685  0.28836474    -0.37100
N634        N  0.30864220  0.96473731  0.37557484    -0.37100
C635        C  0.12652798  0.17893067  0.38505705    -0.03800
C636        C  0.11999601  0.16750504  0.41230398    -0.00900
C637        C  0.11022948  0.19065329  0.43326793     0.04100
C638        C  0.10735443  0.22592332  0.42760363    -0.03800
C639        C  0.10501252  0.23514118  0.39919815    -0.00900
C640        C  0.11486130  0.21169451  0.37793376     0.04100
C641        C  0.12326327  0.13160287  0.41883764     0.38700
C642        C  0.09492720  0.26906578  0.39151350     0.38700
C643        C  0.11446067  0.22179765  0.34904267     0.37200
C644        C  0.10198455  0.17699479  0.46028759     0.37200
N645        N  0.11367210  0.22940506  0.32584992    -0.37700
N646        N  0.09451220  0.16293632  0.48054973    -0.37700
N647        N  0.08684401  0.29572628  0.38409223    -0.37100
N648        N  0.12564592  0.10300191  0.42405432    -0.37100
C649        C  0.20754498  0.28810222  0.45541639    -0.03800
C650        C  0.23610100  0.29983222  0.47166483    -0.00900
C651        C  0.26981056  0.30104405  0.45999293     0.04100
C652        C  0.27691233  0.28347020  0.43497893    -0.03800
C653        C  0.24954891  0.26566680  0.42244403    -0.00900
C654        C  0.21566099  0.27406320  0.42918058     0.04100
C655        C  0.23285677  0.30805667  0.50076053     0.38700
C656        C  0.25434608  0.23056276  0.41519636     0.38700
C657        C  0.19006675  0.26820923  0.40819433     0.37200
C658        C  0.29761142  0.31708764  0.47548293     0.37200
N659        N  0.17150980  0.26460127  0.38973354    -0.37700
N660        N  0.31902309  0.33035881  0.48841769    -0.37700
N661        N  0.25707014  0.20143480  0.41285763    -0.37100
N662        N  0.22807040  0.29614489  0.02897985    -0.37100
C663        C  0.29071645  0.17344037  0.36025329    -0.03800
C664        C  0.27968374  0.20684671  0.35523342    -0.00900
C665        C  0.30344708  0.23373933  0.35629652     0.04100
C666        C  0.33664428  0.22858184  0.36609094    -0.03800
C667        C  0.34945399  0.19529454  0.36480236    -0.00900
C668        C  0.32630735  0.16735741  0.36134429     0.04100
C669        C  0.24343377  0.21425568  0.35170558     0.38700
C670        C  0.38605778  0.18958414  0.36551422     0.38700
C671        C  0.33890595  0.13292113  0.35994290     0.37200
C672        C  0.29465594  0.26581176  0.34474532     0.37200
N673        N  0.34933284  0.10555869  0.35869073    -0.37700
N674        N  0.28684646  0.29015306  0.33335637    -0.37700
N675        N  0.41487720  0.18266762  0.36576106    -0.37100
N676        N  0.21433644  0.21984062  0.35057604    -0.37100
C677        C  0.36513733  0.23230426  0.46350018    -0.03800
C678        C  0.36516057  0.24491280  0.49137527    -0.00900
C679        C  0.35287504  0.22429722  0.51420014     0.04100
C680        C  0.34090555  0.19040019  0.50990260    -0.03800
C681        C  0.34544622  0.17646285  0.48329271    -0.00900
C682        C  0.35718343  0.19674378  0.46064749     0.04100
C683        C  0.37800822  0.27886949  0.49721987     0.38700
C684        C  0.33864853  0.14019148  0.47931031     0.38700
C685        C  0.36221938  0.17880406  0.43493630     0.37200
C686        C  0.34405731  0.21876614  0.04113135     0.37200
N687        N  0.36633459  0.16011044  0.41675642    -0.37700
N688        N  0.34573140  0.22779506  0.06399389    -0.37700
N689        N  0.33352626  0.11131431  0.47625697    -0.37100
N690        N  0.38873769  0.30551424  0.50327539    -0.37100
C691        C  0.28107019  0.52076365  0.07699246    -0.03800
C692        C  0.29605005  0.54720784  0.06087469    -0.00900
C693        C  0.28472466  0.58119249  0.06402688     0.04100
C694        C  0.25802903  0.58875918  0.08301207    -0.03800
C695        C  0.24133802  0.56186951  0.09731728    -0.00900
C696        C  0.25344998  0.52851007  0.09518857     0.04100
C697        C  0.32366754  0.53964088  0.04163755     0.38700
C698        C  0.20997267  0.56774427  0.11302069     0.38700
C699        C  0.23623290  0.50222922  0.11159971     0.37200
C700        C  0.29968549  0.60785375  0.04689860     0.37200
N701        N  0.22207935  0.48239289  0.12545438    -0.37700
N702        N  0.31194421  0.62851625  0.03269589    -0.37700
N703        N  0.18450276  0.57118479  0.12520908    -0.37100
N704        N  0.34573385  0.53353498  0.02629476    -0.37100
C705        C  0.16388002  0.34268465  0.49088262    -0.03800
C706        C  0.18906054  0.36230696  0.47621205    -0.00900
C707        C  0.21285090  0.38347471  0.49110209     0.04100
C708        C  0.21019485  0.38636195  0.52015778    -0.03800
C709        C  0.17762453  0.36544752  0.02512514    -0.00900
C710        C  0.15596108  0.33770583  0.01757317     0.04100
C711        C  0.18951327  0.36127369  0.44625938     0.38700
C712        C  0.16556207  0.39015952  0.04504968     0.38700
C713        C  0.12592233  0.33184125  0.03481386     0.37200
C714        C  0.23822810  0.40444914  0.47729264     0.37200
N715        N  0.10183433  0.32988412  0.04898267    -0.37700
N716        N  0.25856611  0.42341261  0.46860182    -0.37700
N717        N  0.15477728  0.41082705  0.05960892    -0.37100
N718        N  0.18862478  0.36008493  0.42227892    -0.37100
C719        C  0.11918468  0.24804193  0.04732021    -0.03800
C720        C  0.15215438  0.25234003  0.05895342    -0.00900
C721        C  0.15669887  0.26847135  0.08483165     0.04100
C722        C  0.12875854  0.27117679  0.10365474    -0.03800
C723        C  0.09525966  0.26596907  0.09256694    -0.00900
C724        C  0.09056423  0.25687421  0.06406617     0.04100
C725        C  0.18194143  0.23705535  0.04634624     0.38700
C726        C  0.06558678  0.27309441  0.10974026     0.38700
C727        C  0.05639679  0.25698523  0.05210074     0.37200
C728        C  0.19048407  0.28271439  0.08993580     0.37200
N729        N  0.02895875  0.25734219  0.04282257    -0.37700
N730        N  0.21810165  0.29420061  0.08955222    -0.37700
N731        N  0.04173143  0.27944826  0.12310430    -0.37100
N732        N  0.20655371  0.22401267  0.03848952    -0.37100
C733        C  0.16837673  0.33007799  0.13677761    -0.03800
C734        C  0.15205554  0.36010375  0.12842775    -0.00900
C735        C  0.17154562  0.39069601  0.12635618     0.04100
C736        C  0.20703095  0.39086627  0.13216298    -0.03800
C737        C  0.22121635  0.36280627  0.14526076    -0.00900
C738        C  0.20384069  0.33158071  0.14375759     0.04100
C739        C  0.11618985  0.35904721  0.12037473     0.38700
C740        C  0.25593922  0.36473215  0.15628465     0.38700
C741        C  0.22421321  0.30116958  0.14610964     0.37200
C742        C  0.15550880  0.42246841  0.11936379     0.37200
N743        N  0.24213017  0.27795818  0.14671453    -0.37700
N744        N  0.14272965  0.44802730  0.11408193    -0.37700
N745        N  0.28356038  0.36599992  0.16512351    -0.37100
N746        N  0.08770403  0.35820964  0.11338248    -0.37100
C747        C  0.18457456  0.21007454  0.16028999    -0.03800
C748        C  0.18969156  0.17838712  0.17351134    -0.00900
C749        C  0.21654411  0.15697659  0.16390501     0.04100
C750        C  0.23686601  0.16690162  0.14057515    -0.03800
C751        C  0.22876408  0.19776211  0.12717939    -0.00900
C752        C  0.19708376  0.21231177  0.13315481     0.04100
C753        C  0.16527763  0.16592109  0.19402157     0.38700
C754        C  0.24605923  0.20817197  0.10178556     0.38700
C755        C  0.17136595  0.20302173  0.11286103     0.37200
C756        C  0.22335790  0.12529975  0.17795131     0.37200
N757        N  0.15044987  0.19320873  0.09764101    -0.37700
N758        N  0.22901236  0.10020637  0.18946961    -0.37700
N759        N  0.26009211  0.21557918  0.08138503    -0.37100
N760        N  0.14620919  0.15553651  0.21064144    -0.37100
C761        C  0.19104227  0.52636050  0.31079445    -0.03800
C762        C  0.17847231  0.54427308  0.28781343    -0.00900
C763        C  0.17996356  0.58014119  0.28763059     0.04100
C764        C  0.19729796  0.59823628  0.30933101    -0.03800
C765        C  0.20081384  0.58050158  0.33466327    -0.00900
C766        C  0.20016841  0.54464276  0.33498735     0.04100
C767        C  0.16310460  0.52585357  0.26459262     0.38700
C768        C  0.19553624  0.59778973  0.36078071     0.38700
C769        C  0.20989113  0.52695970  0.36011126     0.37200
C770        C  0.15804506  0.59704167  0.26802302     0.37200
N771        N  0.21776893  0.51297623  0.38017780    -0.37700
N772        N  0.13916411  0.60960565  0.25276485    -0.37700
N773        N  0.18925240  0.60916014  0.38237300    -0.37100
N774        N  0.15079433  0.51131638  0.24607331    -0.37100
C775        C  0.13975065  0.35086563  0.25952572    -0.03800
C776        C  0.12089494  0.36394847  0.23687286    -0.00900
C777        C  0.10506975  0.34154754  0.21723039     0.04100
C778        C  0.10929800  0.30575684  0.21882902    -0.03800
C779        C  0.12321953  0.29286191  0.24372688    -0.00900
C780        C  0.13724452  0.31534997  0.26425113     0.04100
C781        C  0.12050602  0.40032227  0.23200069     0.38700
C782        C  0.12514092  0.25638420  0.24725337     0.38700
C783        C  0.14719290  0.30262058  0.29109888     0.37200
C784        C  0.08697879  0.35536560  0.19366759     0.37200
N785        N  0.15402917  0.29376287  0.31325810    -0.37700
N786        N  0.07193508  0.36651900  0.17521174    -0.37700
N787        N  0.12646875  0.22716842  0.24986183    -0.37100
N788        N  0.12034705  0.42932949  0.22788777    -0.37100
C789        C  0.24684198  0.37668589  0.38613771    -0.03800
C790        C  0.25439336  0.34240546  0.38014083    -0.00900
C791        C  0.28965274  0.33588239  0.37926989     0.04100
C792        C  0.30683125  0.34208207  0.40415255    -0.03800
C793        C  0.29742862  0.37326527  0.41756017    -0.00900
C794        C  0.26983456  0.39278490  0.40562573     0.04100
C795        C  0.23151713  0.32117393  0.36379011     0.38700
C796        C  0.31716219  0.38712019  0.44027844     0.38700
C797        C  0.26818947  0.42913449  0.41002241     0.37200
C798        C  0.30460548  0.35776261  0.35828807     0.37200
N799        N  0.26698999  0.45830319  0.41319173    -0.37700
N800        N  0.31350066  0.38040330  0.34461636    -0.37700
N801        N  0.33149143  0.39997574  0.45864134    -0.37100
N802        N  0.21349110  0.30445452  0.35014856    -0.37100
C803        C  0.27961283  0.27878171  0.21422548    -0.03800
C804        C  0.25796706  0.30689702  0.21560579    -0.00900
C805        C  0.22281763  0.30416597  0.20871368     0.04100
C806        C  0.20765819  0.27178731  0.20107839    -0.03800
C807        C  0.22773738  0.24351346  0.20697661    -0.00900
C808        C  0.26380197  0.24662429  0.20828071     0.04100
C809        C  0.26959516  0.33817863  0.22831311     0.38700
C810        C  0.21205923  0.21667224  0.22317763     0.38700
C811        C  0.28300551  0.21571173  0.20485186     0.37200
C812        C  0.20454988  0.33585137  0.21123199     0.37200
N813        N  0.29691268  0.19017224  0.20173573    -0.37700
N814        N  0.19309400  0.36277670  0.21296906    -0.37700
N815        N  0.20068173  0.19587936  0.23767389    -0.37100
N816        N  0.27373883  0.36357241  0.23978293    -0.37100
C817        C  0.37779471  0.29264975  0.35070859    -0.03800
C818        C  0.36491681  0.32160750  0.33827831    -0.00900
C819        C  0.35816705  0.32108229  0.30936141     0.04100
C820        C  0.37917759  0.30287123  0.29079112    -0.03800
C821        C  0.40360929  0.28133283  0.30426661    -0.00900
C822        C  0.40169627  0.27505616  0.33386899     0.04100
C823        C  0.37907462  0.35295575  0.34959267     0.38700
C824        C  0.43153128  0.26668766  0.28858511     0.38700
C825        C  0.42904442  0.25734648  0.34759816     0.37200
C826        C  0.32717662  0.33607909  0.29981404     0.37200
N827        N  0.45215841  0.24481029  0.35838661    -0.37700
N828        N  0.30229895  0.34896898  0.29266835    -0.37700
N829        N  0.45420361  0.25463411  0.27666484    -0.37100
N830        N  0.39096524  0.37767583  0.35890779    -0.37100
C831        C  0.35918021  0.36782991  0.24599137    -0.03800
C832        C  0.36968264  0.38448477  0.27081894    -0.00900
C833        C  0.34818967  0.41020554  0.28198675     0.04100
C834        C  0.31891978  0.42001734  0.26681251    -0.03800
C835        C  0.32139403  0.41625112  0.23794478    -0.00900
C836        C  0.34224277  0.39009356  0.22730057     0.04100
C837        C  0.40225650  0.37710462  0.28366380     0.38700
C838        C  0.30011186  0.43626469  0.21968691     0.38700
C839        C  0.34964419  0.39079621  0.19805113     0.37200
C840        C  0.35618467  0.42697300  0.30796406     0.37200
N841        N  0.35400366  0.39522422  0.17459844    -0.37700
N842        N  0.36267832  0.44091199  0.32854879    -0.37700
N843        N  0.28310580  0.45206056  0.20502833    -0.37100
N844        N  0.42838143  0.37187337  0.29418805    -0.37100
C845        C  0.37235548  0.30464072  0.16681615    -0.03800
C846        C  0.39110098  0.33381490  0.15708790    -0.00900
C847        C  0.38132848  0.35093021  0.13208810     0.04100
C848        C  0.35205701  0.33981435  0.11695807    -0.03800
C849        C  0.33841464  0.30729398  0.12342742    -0.00900
C850        C  0.34833867  0.28993749  0.14790612     0.04100
C851        C  0.41929449  0.34807224  0.17306877     0.38700
C852        C  0.31396965  0.29171581  0.10438603     0.38700
C853        C  0.33345380  0.25666287  0.15290048     0.37200
C854        C  0.39951968  0.38173216  0.12352721     0.37200
N855        N  0.32102441  0.22978864  0.15425028    -0.37700
N856        N  0.41407237  0.40636186  0.11682881    -0.37700
N857        N  0.29477005  0.28018686  0.08850011    -0.37100
N858        N  0.44228090  0.36121292  0.18425066    -0.37100
C859        C  0.31156268  0.23497230  0.25951536    -0.03800
C860        C  0.32099524  0.20031890  0.26137604    -0.00900
C861        C  0.29705118  0.17520429  0.27115224     0.04100
C862        C  0.26329887  0.18424284  0.27973853    -0.03800
C863        C  0.25533641  0.21903980  0.28037449    -0.00900
C864        C  0.27945004  0.24398592  0.27167497     0.04100
C865        C  0.35473828  0.18961842  0.25235116     0.38700
C866        C  0.22124784  0.22984835  0.28887205     0.38700
C867        C  0.26861498  0.27865923  0.27507129     0.37200
C868        C  0.30729751  0.13986545  0.27141963     0.37200
N869        N  0.25424618  0.30366663  0.27925382    -0.37700
N870        N  0.31565631  0.11174125  0.27167977    -0.37700
N871        N  0.19378932  0.23817344  0.29478795    -0.37100
N872        N  0.38171000  0.18029286  0.24589139    -0.37100
C873        C  0.84414901  0.81553019  0.50673355    -0.03800
C874        C  0.85839584  0.84830816  0.51221098    -0.00900
C875        C  0.82527871  0.88355304  0.00851802     0.04100
C876        C  0.78970924  0.87718389  0.00449391    -0.03800
C877        C  0.77869880  0.84416785  0.99772512    -0.00900
C878        C  0.80101229  0.81733220  0.00180224     0.04100
C879        C  0.89463396  0.85209037  0.51832409     0.38700
C880        C  0.74451222  0.83838593  0.98663431     0.38700
C881        C  0.78909196  0.78756142  0.01637419     0.37200
C882        C  0.83731722  0.91762838  0.01524521     0.37200
N883        N  0.77890917  0.76498702  0.02960041    -0.37700
N884        N  0.84695877  0.94498810  0.02029903    -0.37700
N885        N  0.71759232  0.83634014  0.97644099    -0.37100
N886        N  0.92329266  0.85617897  0.52416590    -0.37100
C887        C  0.92879043  0.74566525  0.44031292    -0.03800
C888        C  0.95456213  0.76809933  0.45082060    -0.00900
C889        C  0.98914317  0.75852280  0.45172599     0.04100
C890        C  0.99871442  0.72557355  0.44355678    -0.03800
C891        C  0.97408991  0.70399240  0.43083413    -0.00900
C892        C  0.93931119  0.71420656  0.42883192     0.04100
C893        C  0.94672298  0.80110833  0.46196323     0.38700
C894        C  0.98453989  0.67140775  0.41979231     0.38700
C895        C  0.91558996  0.69323983  0.41299927     0.37200
C896        C  0.01513686  0.78366473  0.46020109     0.37200
N897        N  0.89851553  0.67571888  0.39920003    -0.37700
N898        N  0.03500858  0.80443838  0.46676793    -0.37700
N899        N  0.99296727  0.64549110  0.41082909    -0.37100
N900        N  0.94450844  0.82777815  0.47177364    -0.37100
C901        C  0.88149299  0.80683818  0.41215879    -0.03800
C902        C  0.86996245  0.79385078  0.38603331    -0.00900
C903        C  0.85757530  0.81595444  0.36496357     0.04100
C904        C  0.85691246  0.85137485  0.36909443    -0.03800
C905        C  0.87250380  0.86490884  0.39295457    -0.00900
C906        C  0.88354662  0.84327977  0.41462852     0.04100
C907        C  0.86629883  0.75770459  0.38144326     0.38700
C908        C  0.87507773  0.90172095  0.39588992     0.38700
C909        C  0.89190725  0.86013622  0.44048809     0.37200
C910        C  0.84257639  0.80242466  0.33967124     0.37200
N911        N  0.89714025  0.87684153  0.45988635    -0.37700
N912        N  0.83020526  0.79305735  0.31915988    -0.37700
N913        N  0.87721574  0.93102355  0.39809765    -0.37100
N914        N  0.86226587  0.72926509  0.37601732    -0.37100
C915        C  0.71952753  0.77000270  0.41627862    -0.03800
C916        C  0.73947410  0.80051412  0.41784903    -0.00900
C917        C  0.77350580  0.80049283  0.42817063     0.04100
C918        C  0.79002388  0.76896991  0.43292157    -0.03800
C919        C  0.77280572  0.73977466  0.42245376    -0.00900
C920        C  0.73688028  0.73930143  0.42149796     0.04100
C921        C  0.72879037  0.83126188  0.40459432     0.38700
C922        C  0.79127226  0.71105751  0.41135622     0.38700
C923        C  0.71913354  0.70752762  0.42792999     0.37200
C924        C  0.79073048  0.83342230  0.43055230     0.37200
N925        N  0.70626879  0.68162795  0.43355406    -0.37700
N926        N  0.80248873  0.86068672  0.43193369    -0.37700
N927        N  0.80541334  0.68801769  0.40198916    -0.37100
N928        N  0.72557803  0.85686623  0.39344443    -0.37100
C929        C  0.67939190  0.90056783  0.35141774    -0.03800
C930        C  0.65443471  0.88411230  0.33485797    -0.00900
C931        C  0.63386576  0.85759414  0.34675747     0.04100
C932        C  0.64134623  0.84673559  0.37409073    -0.03800
C933        C  0.65411364  0.87359035  0.39172396    -0.00900
C934        C  0.67291833  0.90113133  0.37991327     0.04100
C935        C  0.64851822  0.89688580  0.30718604     0.38700
C936        C  0.64927100  0.87463017  0.42135500     0.38700
C937        C  0.68806788  0.92802984  0.39692532     0.37200
C938        C  0.60188471  0.84722921  0.33382341     0.37200
N939        N  0.69996993  0.94960518  0.41043172    -0.37700
N940        N  0.57591790  0.84007689  0.32340055    -0.37700
N941        N  0.64820432  0.87854022  0.44512220    -0.37100
N942        N  0.64400375  0.90775987  0.28519634    -0.37100
C943        C  0.57816762  0.73923285  0.41793657    -0.03800
C944        C  0.57157823  0.70670212  0.42973630    -0.00900
C945        C  0.53727148  0.69345747  0.43166363     0.04100
C946        C  0.50933929  0.71329904  0.42297865    -0.03800
C947        C  0.51605984  0.74683771  0.41359261    -0.00900
C948        C  0.54996988  0.75871767  0.40938533     0.04100
C949        C  0.59974721  0.68635596  0.43941689     0.38700
C950        C  0.48798792  0.77026402  0.40970063     0.38700
C951        C  0.55525041  0.79036845  0.39449009     0.37200
C952        C  0.53084258  0.65929444  0.44195127     0.37200
N953        N  0.55818735  0.81538655  0.38201730    -0.37700
N954        N  0.52572186  0.63198168  0.45012916    -0.37700
N955        N  0.46574636  0.78918705  0.40728276    -0.37100
N956        N  0.62149914  0.66907159  0.44717373    -0.37100
C957        C  0.62221257  0.79024645  0.45754870    -0.03800
C958        C  0.60447184  0.82055700  0.46457526    -0.00900
C959        C  0.61361880  0.84010500  0.48866445     0.04100
C960        C  0.64145556  0.83046051  0.50549104    -0.03800
C961        C  0.65360945  0.79706259  0.50192163    -0.00900
C962        C  0.64399434  0.77715214  0.47837236     0.04100
C963        C  0.57751515  0.83330366  0.44711569     0.38700
C964        C  0.66424940  0.78646247  0.01720746     0.38700
C965        C  0.65682509  0.74307428  0.47594176     0.37200
C966        C  0.59625221  0.87169256  0.49459124     0.37200
N967        N  0.66712821  0.71568619  0.47581495    -0.37700
N968        N  0.58233258  0.89688228  0.49923656    -0.37700
N969        N  0.68072239  0.77570555  0.03499836    -0.37100
N970        N  0.55526905  0.84581411  0.43519249    -0.37100
C971        C  0.75924480  0.65256863  0.49141069    -0.03800
C972        C  0.75445199  0.68689706  0.49755729    -0.00900
C973        C  0.77410844  0.71216664  0.48417634     0.04100
C974        C  0.80582022  0.70467689  0.47027001    -0.03800
C975        C  0.81045336  0.67471000  0.96358655    -0.00900
C976        C  0.78801267  0.64829134  0.97379373     0.04100
C977        C  0.73035479  0.69652480  0.51941725     0.38700
C978        C  0.84358303  0.66455158  0.95308500     0.38700
C979        C  0.79677693  0.61282391  0.97014880     0.37200
C980        C  0.75649025  0.74375052  0.48223895     0.37200
N981        N  0.80381840  0.58454224  0.96722437    -0.37700
N982        N  0.73816271  0.76645678  0.48125926    -0.37700
N983        N  0.87001678  0.65377569  0.94686951    -0.37100
N984        N  0.71155166  0.70301918  0.53727028    -0.37100
C985        C  0.86855406  0.75076590  0.07983793    -0.03800
C986        C  0.89810685  0.76597647  0.06647395    -0.00900
C987        C  0.89873227  0.77130586  0.03693109     0.04100
C988        C  0.87219923  0.75770334  0.01985989    -0.03800
C989        C  0.84940118  0.73468275  0.03293464    -0.00900
C990        C  0.84335894  0.73653477  0.06172894     0.04100
C991        C  0.92779060  0.77685377  0.08252393     0.38700
C992        C  0.84502495  0.70130888  0.02125945     0.38700
C993        C  0.81123763  0.72192575  0.07136992     0.37200
C994        C  0.92815913  0.78813384  0.02419358     0.37200
N995        N  0.78537371  0.70881118  0.07728627    -0.37700
N996        N  0.95262244  0.80099729  0.01491096    -0.37700
N997        N  0.84385954  0.67297652  0.01490182    -0.37100
N998        N  0.95202732  0.78609113  0.09447872    -0.37100
C999        C  0.83818891  0.68969945  0.12283235    -0.03800
C1000       C  0.85162827  0.67081976  0.10000198    -0.00900
C1001       C  0.83125694  0.64416707  0.08821283     0.04100
C1002       C  0.79827041  0.63724844  0.09917202    -0.03800
C1003       C  0.78929557  0.65008160  0.12509741    -0.00900
C1004       C  0.81166628  0.67259465  0.13842804     0.04100
C1005       C  0.88547153  0.67808676  0.08857638     0.38700
C1006       C  0.75611977  0.64161168  0.13766799     0.38700
C1007       C  0.81160979  0.66928518  0.16828052     0.37200
C1008       C  0.84325011  0.62458353  0.06470935     0.37200
N1009       N  0.80960693  0.66517614  0.19201681    -0.37700
N1010       N  0.85280800  0.60837325  0.04621262    -0.37700
N1011       N  0.72953402  0.63537789  0.14750194    -0.37100
N1012       N  0.91237523  0.68302395  0.07880871    -0.37100
C1013       C  0.92757409  0.78655168  0.15961957    -0.03800
C1014       C  0.95423502  0.76292369  0.15762773    -0.00900
C1015       C  0.98805093  0.77252414  0.16422471     0.04100
C1016       C  0.99696036  0.80712777  0.16812206    -0.03800
C1017       C  0.97091953  0.83156068  0.16877961    -0.00900
C1018       C  0.93611380  0.82122990  0.16480491     0.04100
C1019       C  0.94929285  0.73138173  0.14262230     0.38700
C1020       C  0.98007478  0.86723723  0.17226600     0.38700
C1021       C  0.90982062  0.84677033  0.16380306     0.37200
C1022       C  0.01389400  0.74632034  0.16596656     0.37200
N1023       N  0.88967822  0.86799620  0.16242621    -0.37700
N1024       N  0.03358280  0.72467210  0.16742250    -0.37700
N1025       N  0.98737265  0.89574016  0.17499956    -0.37100
N1026       N  0.94856501  0.70725374  0.12887427    -0.37100
C1027       C  0.81588787  0.82934801  0.12714466    -0.03800
C1028       C  0.80476718  0.82856507  0.09944519    -0.00900
C1029       C  0.77294379  0.84230334  0.09210147     0.04100
C1030       C  0.75671861  0.86583097  0.10946815    -0.03800
C1031       C  0.77336044  0.87469535  0.13446175    -0.00900
C1032       C  0.80024442  0.85392638  0.14481479     0.04100
C1033       C  0.82886263  0.82163037  0.07778292     0.38700
C1034       C  0.76516507  0.90669785  0.14737690     0.38700
C1035       C  0.81267160  0.85943156  0.17273099     0.37200
C1036       C  0.75590353  0.83168539  0.06688400     0.37200
N1037       N  0.82225317  0.86471601  0.19509519    -0.37700
N1038       N  0.73884150  0.82335761  0.04841596    -0.37700
N1039       N  0.75911404  0.93359328  0.15562874    -0.37100
N1040       N  0.84873720  0.81974303  0.06006023    -0.37100
C1041       C  0.88660505  0.72892933  0.19484407    -0.03800
C1042       C  0.88642652  0.74206141  0.22226917    -0.00900
C1043       C  0.87701886  0.72067611  0.24530326     0.04100
C1044       C  0.86918377  0.68567464  0.24113052    -0.03800
C1045       C  0.87877525  0.67151698  0.21547472    -0.00900
C1046       C  0.88702592  0.69273672  0.19250979     0.04100
C1047       C  0.89722404  0.77704495  0.22674370     0.38700
C1048       C  0.87867151  0.63465593  0.21237369     0.38700
C1049       C  0.89557592  0.67589194  0.16683831     0.37200
C1050       C  0.87636042  0.73421394  0.27318480     0.37200
N1051       N  0.90246308  0.65896757  0.14800513    -0.37700
N1052       N  0.87689570  0.74437043  0.29574574    -0.37700
N1053       N  0.87847491  0.60534493  0.20987255    -0.37100
N1054       N  0.90611642  0.80497067  0.23041306    -0.37100
C1055       C  0.74423285  0.66934396  0.35536921    -0.03800
C1056       C  0.75009321  0.70416713  0.35045780    -0.00900
C1057       C  0.72683011  0.72849653  0.36025669     0.04100
C1058       C  0.69408601  0.71852075  0.37209996    -0.03800
C1059       C  0.68616908  0.68299875  0.37240827    -0.00900
C1060       C  0.71189293  0.65882434  0.36619524     0.04100
C1061       C  0.77926859  0.71527558  0.33333309     0.38700
C1062       C  0.65214727  0.67045448  0.37982813     0.38700
C1063       C  0.70520117  0.62297489  0.37152337     0.37200
C1064       C  0.74033072  0.76297291  0.35958914     0.37200
N1065       N  0.69998439  0.59438546  0.37589916    -0.37700
N1066       N  0.75602872  0.78829170  0.35903821    -0.37700
N1067       N  0.62501301  0.65922592  0.38455089    -0.37100
N1068       N  0.80194150  0.72355369  0.31907836    -0.37100
C1069       C  0.71720705  0.77325395  0.18733028    -0.03800
C1070       C  0.72158001  0.77609733  0.15855453    -0.00900
C1071       C  0.75477665  0.77488375  0.14713021     0.04100
C1072       C  0.78391845  0.77775787  0.16454691    -0.03800
C1073       C  0.77899594  0.78008753  0.19331255    -0.00900
C1074       C  0.74637042  0.77389837  0.20453498     0.04100
C1075       C  0.69237686  0.78064286  0.14043486     0.38700
C1076       C  0.80693684  0.78869030  0.21195669     0.38700
C1077       C  0.74513206  0.76056434  0.23218556     0.37200
C1078       C  0.75748114  0.76938141  0.11769892     0.37200
N1079       N  0.74840943  0.74736671  0.25330029    -0.37700
N1080       N  0.75578189  0.76561926  0.09396739    -0.37700
N1081       N  0.82712327  0.79700593  0.22829465    -0.37100
N1082       N  0.67055253  0.78582260  0.12484714    -0.37100
C1083       C  0.63720793  0.75161749  0.27777742    -0.03800
C1084       C  0.60407878  0.75697568  0.28985608    -0.00900
C1085       C  0.60039580  0.76383382  0.31909030     0.04100
C1086       C  0.62894330  0.77613124  0.33493981    -0.03800
C1087       C  0.66090182  0.77514615  0.32148034    -0.00900
C1088       C  0.66527455  0.75700255  0.29614029     0.04100
C1089       C  0.57346356  0.75387940  0.27297397     0.38700
C1090       C  0.68608005  0.80019254  0.32996451     0.38700
C1091       C  0.69427874  0.73515160  0.29438961     0.37200
C1092       C  0.56725475  0.75809265  0.33216908     0.37200
N1093       N  0.71587648  0.71531408  0.29468374    -0.37700
N1094       N  0.54035364  0.75230725  0.34163493    -0.37700
N1095       N  0.70357420  0.82287236  0.33667869    -0.37100
N1096       N  0.54829004  0.75193035  0.26025974    -0.37100
C1097       C  0.67523336  0.68912688  0.24117009    -0.03800
C1098       C  0.70220329  0.67220262  0.22614220    -0.00900
C1099       C  0.70934247  0.63822024  0.23188732     0.04100
C1100       C  0.70353522  0.62736428  0.25878654    -0.03800
C1101       C  0.67598500  0.64123229  0.27364020    -0.00900
C1102       C  0.65927785  0.67011610  0.26312039     0.04100
C1103       C  0.72618314  0.68874127  0.20730905     0.38700
C1104       C  0.66451323  0.62495157  0.29904626     0.38700
C1105       C  0.62500973  0.67704511  0.27320966     0.37200
C1106       C  0.73134353  0.61809114  0.21395653     0.37200
N1107       N  0.59722490  0.68038962  0.28140023    -0.37700
N1108       N  0.74889916  0.60144634  0.20024775    -0.37700
N1109       N  0.65480548  0.61178399  0.31914926    -0.37100
N1110       N  0.74538934  0.70023862  0.19134432    -0.37100
C1111       C  0.57651229  0.76884080  0.19333405    -0.03800
C1112       C  0.54890810  0.74513042  0.19511404    -0.00900
C1113       C  0.51506650  0.75609310  0.19152673     0.04100
C1114       C  0.50852828  0.79108698  0.18863380    -0.03800
C1115       C  0.53571735  0.81452956  0.18523842    -0.00900
C1116       C  0.56980715  0.80336210  0.18712089     0.04100
C1117       C  0.55414100  0.71077342  0.20489063     0.38700
C1118       C  0.52844343  0.85029583  0.18141621     0.38700
C1119       C  0.59757207  0.82795280  0.18345257     0.37200
C1120       C  0.48668816  0.73146889  0.19265566     0.37200
N1121       N  0.61872259  0.84866562  0.18033052    -0.37700
N1122       N  0.46448559  0.71142896  0.19336223    -0.37700
N1123       N  0.52247776  0.87879961  0.17843002    -0.37100
N1124       N  0.55644592  0.68358294  0.21374137    -0.37100
C1125       C  0.62152965  0.71029386  0.16303949    -0.03800
C1126       C  0.61842709  0.72221086  0.13540569    -0.00900
C1127       C  0.62919497  0.70175098  0.11231746     0.04100
C1128       C  0.64147866  0.66825512  0.11648034    -0.03800
C1129       C  0.63691682  0.65424882  0.14334825    -0.00900
C1130       C  0.62749785  0.67494273  0.16620780     0.04100
C1131       C  0.60306696  0.75488322  0.13051839     0.38700
C1132       C  0.64151319  0.61803263  0.14771784     0.38700
C1133       C  0.62367691  0.65890757  0.19306111     0.37200
C1134       C  0.62777063  0.71544005  0.08447821     0.37200
N1135       N  0.61995621  0.64390568  0.21352554    -0.37700
N1136       N  0.62613863  0.72633530  0.06221821    -0.37700
N1137       N  0.64498643  0.58918173  0.15128779    -0.37100
N1138       N  0.59042104  0.78071700  0.12597695    -0.37100
C1139       C  0.68475397  0.82140305  0.22603109    -0.03800
C1140       C  0.69057635  0.81922630  0.25433705    -0.00900
C1141       C  0.72202221  0.83103140  0.26477340     0.04100
C1142       C  0.73853619  0.85916495  0.25236239    -0.03800
C1143       C  0.72578461  0.86987228  0.22636081    -0.00900
C1144       C  0.70238742  0.84808771  0.21147517     0.04100
C1145       C  0.66045909  0.82588729  0.27051345     0.38700
C1146       C  0.73470905  0.90351091  0.21646304     0.38700
C1147       C  0.69564894  0.85433904  0.18249483     0.37200
C1148       C  0.73984713  0.81069608  0.28470256     0.37200
N1149       N  0.69063600  0.85981774  0.15926234    -0.37700
N1150       N  0.75584346  0.79425966  0.29958709    -0.37700
N1151       N  0.74115125  0.93146207  0.21068187    -0.37100
N1152       N  0.63456932  0.83115502  0.28140315    -0.37100
C1153       C  0.49262978  0.30943217  0.43078195    -0.03800
C1154       C  0.46953809  0.33334576  0.44136207    -0.00900
C1155       C  0.43414080  0.32450322  0.44432057     0.04100
C1156       C  0.42153876  0.29131566  0.43758102    -0.03800
C1157       C  0.44603223  0.26638444  0.43057959    -0.00900
C1158       C  0.48102063  0.27553256  0.42665379     0.04100
C1159       C  0.48197152  0.36735714  0.44823457     0.38700
C1160       C  0.43629938  0.23105962  0.42678101     0.38700
C1161       C  0.50530312  0.24966490  0.41819010     0.37200
C1162       C  0.41114119  0.34969242  0.45514355     0.37200
N1163       N  0.52449924  0.22908785  0.41128139    -0.37700
N1164       N  0.39420998  0.37045458  0.46485570    -0.37700
N1165       N  0.43157921  0.20214574  0.42398343    -0.37100
N1166       N  0.49202053  0.39440807  0.45387711    -0.37100
C1167       C  0.69476838  0.20067913  0.35567431    -0.03800
C1168       C  0.69322453  0.23480075  0.34487943    -0.00900
C1169       C  0.66199901  0.25185614  0.34204714     0.04100
C1170       C  0.63265991  0.23867083  0.35466991    -0.03800
C1171       C  0.63213238  0.20485144  0.36290365    -0.00900
C1172       C  0.66321442  0.18735718  0.36672661     0.04100
C1173       C  0.72319712  0.25624384  0.34135131     0.38700
C1174       C  0.59888227  0.18821122  0.36652157     0.38700
C1175       C  0.66138857  0.16043389  0.38680972     0.37200
C1176       C  0.66077650  0.28651376  0.33137569     0.37200
N1177       N  0.65536689  0.14064534  0.40398593    -0.37700
N1178       N  0.65909507  0.31421454  0.32347730    -0.37700
N1179       N  0.57213674  0.17485363  0.36812060    -0.37100
N1180       N  0.74457201  0.27699177  0.33980176    -0.37100
C1181       C  0.78781435  0.02274763  0.31085586    -0.03800
C1182       C  0.75265594  0.03080320  0.31117945    -0.00900
C1183       C  0.74211996  0.06477515  0.30858168     0.04100
C1184       C  0.76688627  0.09176381  0.30602244    -0.03800
C1185       C  0.80158842  0.08257927  0.30132081    -0.00900
C1186       C  0.81226273  0.04844676  0.30459732     0.04100
C1187       C  0.72670836  0.00353705  0.31315525     0.38700
C1188       C  0.82493893  0.10716294  0.28884334     0.38700
C1189       C  0.84822155  0.03986771  0.30190972     0.37200
C1190       C  0.70550375  0.06934280  0.30653938     0.37200
N1191       N  0.87693954  0.03286055  0.29990081    -0.37700
N1192       N  0.67588369  0.06736304  0.30430891    -0.37700
N1193       N  0.84280637  0.12599611  0.27696681    -0.37100
N1194       N  0.70577935  0.98224333  0.31446867    -0.37100
C1195       C  0.48785711  0.23571562  0.19586709    -0.03800
C1196       C  0.45890178  0.21574164  0.18808874    -0.00900
C1197       C  0.42522541  0.22786282  0.19302462     0.04100
C1198       C  0.42054416  0.25975881  0.20609086    -0.03800
C1199       C  0.44970044  0.27955338  0.21358926    -0.00900
C1200       C  0.48292137  0.26839733  0.20736391     0.04100
C1201       C  0.46374507  0.18241053  0.17589026     0.38700
C1202       C  0.44613864  0.31092402  0.22911725     0.38700
C1203       C  0.51194304  0.29159308  0.21199763     0.37200
C1204       C  0.39576734  0.20665522  0.18580468     0.37200
N1205       N  0.53431043  0.31096149  0.21552632    -0.37700
N1206       N  0.37294927  0.18864481  0.18014103    -0.37700
N1207       N  0.44461058  0.33602059  0.24160350    -0.37100
N1208       N  0.46764028  0.15578774  0.16615675    -0.37100
C1209       C  0.70572853  0.13626856  0.27820869    -0.03800
C1210       C  0.71512746  0.13328702  0.24985273    -0.00900
C1211       C  0.69013596  0.13840701  0.22870663     0.04100
C1212       C  0.65638297  0.14802309  0.23596294    -0.03800
C1213       C  0.64576069  0.14458930  0.26365735    -0.00900
C1214       C  0.67012425  0.13909044  0.28463408     0.04100
C1215       C  0.75091511  0.12939633  0.24226969     0.38700
C1216       C  0.60958072  0.14829923  0.27065515     0.38700
C1217       C  0.65751870  0.13499765  0.31268064     0.37200
C1218       C  0.69995735  0.13776402  0.19969818     0.37200
N1219       N  0.64482595  0.12881490  0.33384795    -0.37700
N1220       N  0.70748017  0.13690318  0.17643870    -0.37700
N1221       N  0.58076361  0.15093268  0.27632567    -0.37100
N1222       N  0.77941940  0.12652932  0.23575554    -0.37100
C1223       C  0.75453867  0.30343296  0.28187940    -0.03800
C1224       C  0.72887700  0.27841331  0.27675817    -0.00900
C1225       C  0.73683883  0.24388659  0.27739691     0.04100
C1226       C  0.76628253  0.23280411  0.29107737    -0.03800
C1227       C  0.79401748  0.25594266  0.29157011    -0.00900
C1228       C  0.78784600  0.29117505  0.28975339     0.04100
C1229       C  0.69403827  0.28595076  0.26995580     0.38700
C1230       C  0.82758843  0.24399864  0.28348554     0.38700
C1231       C  0.81645320  0.31358877  0.29684166     0.37200
C1232       C  0.72165605  0.22258391  0.25615833     0.37200
N1233       N  0.84026021  0.32978531  0.30345952    -0.37700
N1234       N  0.70986202  0.20844408  0.23733937    -0.37700
N1235       N  0.85423674  0.23529518  0.27565768    -0.37100
N1236       N  0.66514041  0.28705969  0.26490497    -0.37100
C1237       C  0.67281953  0.37383828  0.23477095    -0.03800
C1238       C  0.66454973  0.37321949  0.20637984    -0.00900
C1239       C  0.64324423  0.34637354  0.19646470     0.04100
C1240       C  0.62740455  0.32397703  0.21566056    -0.03800
C1241       C  0.62319153  0.33606189  0.24290710    -0.00900
C1242       C  0.64620560  0.36155459  0.25252090     0.04100
C1243       C  0.66328780  0.40542447  0.19214845     0.38700
C1244       C  0.59760903  0.32106291  0.26149123     0.38700
C1245       C  0.63775110  0.37884123  0.27788833     0.37200
C1246       C  0.63187898  0.34601309  0.16791992     0.37200
N1247       N  0.62685452  0.39181102  0.29748745    -0.37700
N1248       N  0.62219010  0.34687539  0.14527160    -0.37700
N1249       N  0.57744602  0.30906626  0.27648140    -0.37100
N1250       N  0.65999082  0.43131092  0.18116045    -0.37100
C1251       C  0.78370750  0.44347050  0.28434224    -0.03800
C1252       C  0.80251806  0.46331077  0.26376217    -0.00900
C1253       C  0.82122427  0.49312940  0.27110938     0.04100
C1254       C  0.81429177  0.50973113  0.29612078    -0.03800
C1255       C  0.79659484  0.49142488  0.31690441    -0.00900
C1256       C  0.78514916  0.45735081  0.31203817     0.04100
C1257       C  0.80203800  0.45696968  0.23417990     0.38700
C1258       C  0.78962738  0.50766107  0.34345801     0.38700
C1259       C  0.77962161  0.43763623  0.33687632     0.37200
C1260       C  0.84665730  0.50800816  0.25214704     0.37200
N1261       N  0.77729380  0.42585849  0.35883650    -0.37700
N1262       N  0.86714013  0.51960229  0.23722950    -0.37700
N1263       N  0.78384929  0.52053686  0.36457968    -0.37100
N1264       N  0.80417746  0.45368867  0.21033740    -0.37100
C1265       C  0.71997240  0.39839273  0.31978185    -0.03800
C1266       C  0.69049281  0.41817357  0.32488622    -0.00900
C1267       C  0.66720842  0.40996572  0.34735385     0.04100
C1268       C  0.67305591  0.38168549  0.36502925    -0.03800
C1269       C  0.70458798  0.36481451  0.36179403    -0.00900
C1270       C  0.72753502  0.37328317  0.33978475     0.04100
C1271       C  0.68336870  0.44588213  0.30611357     0.38700
C1272       C  0.71196257  0.33630839  0.37972928     0.38700
C1273       C  0.76117721  0.35883173  0.33944022     0.37200
C1274       C  0.63651581  0.42972072  0.35149813     0.37200
N1275       N  0.78935789  0.35040043  0.34086126    -0.37700
N1276       N  0.61188599  0.44544931  0.35460397    -0.37700
N1277       N  0.71646181  0.31334844  0.39417274    -0.37100
N1278       N  0.67781831  0.46791276  0.29095011    -0.37100
C1279       C  0.99595017  0.31456171  0.44934577    -0.03800
C1280       C  0.00103736  0.28296696  0.46302918    -0.00900
C1281       C  0.03390490  0.26832307  0.46392921     0.04100
C1282       C  0.06313620  0.28684865  0.45484699    -0.03800
C1283       C  0.05859794  0.31955475  0.44322583    -0.00900
C1284       C  0.02518504  0.33257447  0.43919358     0.04100
C1285       C  0.97317419  0.26600320  0.47806382     0.38700
C1286       C  0.08837418  0.34023556  0.43559065     0.38700
C1287       C  0.02129689  0.36551300  0.42617452     0.37200
C1288       C  0.03716169  0.23455448  0.47548060     0.37200
N1289       N  0.01836188  0.39183884  0.41579863    -0.37700
N1290       N  0.02910330  0.19731551  0.99373105    -0.37700
N1291       N  0.11172855  0.35714069  0.42915726    -0.37100
N1292       N  0.94113226  0.23833864  0.98185236    -0.37100
C1293       C  0.85738790  0.26645118  0.36132593    -0.03800
C1294       C  0.82159861  0.26460212  0.36516094    -0.00900
C1295       C  0.80274174  0.23483421  0.35814796     0.04100
C1296       C  0.81569420  0.21015554  0.33950753    -0.03800
C1297       C  0.85220303  0.21142136  0.33571674    -0.00900
C1298       C  0.87286737  0.23870211  0.34740675     0.04100
C1299       C  0.80450928  0.29204412  0.37954075     0.38700
C1300       C  0.86941223  0.18366606  0.32216704     0.38700
C1301       C  0.91002123  0.23837994  0.34490618     0.37200
C1302       C  0.77409510  0.22687807  0.37591698     0.37200
N1303       N  0.93972210  0.23808426  0.34290317    -0.37700
N1304       N  0.75149073  0.22320913  0.39126788    -0.37700
N1305       N  0.88536359  0.16218347  0.31230867    -0.37100
N1306       N  0.79213811  0.31473677  0.39090589    -0.37100
C1307       C  0.75156248  0.14416510  0.38591027    -0.03800
C1308       C  0.72653904  0.12097552  0.39702492    -0.00900
C1309       C  0.72600081  0.11361193  0.42617495     0.04100
C1310       C  0.75388575  0.12464781  0.44263903    -0.03800
C1311       C  0.78452751  0.13020953  0.42762969    -0.00900
C1312       C  0.78313447  0.14511108  0.40112564     0.04100
C1313       C  0.70629503  0.09968667  0.37852985     0.38700
C1314       C  0.81646581  0.11603609  0.43741646     0.38700
C1315       C  0.81522727  0.15934476  0.39089023     0.37200
C1316       C  0.70335161  0.08726675  0.43708820     0.37200
N1317       N  0.84265464  0.16909436  0.38531639    -0.37700
N1318       N  0.68622775  0.06514619  0.44549288    -0.37700
N1319       N  0.84212929  0.10393540  0.44397588    -0.37100
N1320       N  0.68947559  0.08137230  0.36527598    -0.37100
C1321       C  0.79849909  0.17947801  0.46980415    -0.03800
C1322       C  0.78134024  0.20527052  0.45536892    -0.00900
C1323       C  0.79852641  0.23592765  0.44992190     0.04100
C1324       C  0.83459572  0.23837210  0.45363301    -0.03800
C1325       C  0.85269502  0.20961124  0.46243563    -0.00900
C1326       C  0.83441184  0.18187994  0.47356172     0.04100
C1327       C  0.73985957  0.20429356  0.94663639     0.38700
C1328       C  0.88961409  0.20727022  0.45845366     0.38700
C1329       C  0.85305835  0.15639218  0.48869328     0.37200
C1330       C  0.77815584  0.26529771  0.44328142     0.37200
N1331       N  0.86984885  0.13699401  0.50020623    -0.37700
N1332       N  0.76161529  0.28889522  0.43911142    -0.37700
N1333       N  0.91878955  0.20433195  0.45438970    -0.37100
N1334       N  0.71197498  0.19888261  0.93920723    -0.37100
C1335       C  0.70073235  0.01559578  0.03549520    -0.03800
C1336       C  0.73048193  0.02274057  0.01928249    -0.00900
C1337       C  0.74054311  0.05638414  0.01366825     0.04100
C1338       C  0.72298464  0.08357664  0.02596703    -0.03800
C1339       C  0.69253152  0.07676899  0.04134546    -0.00900
C1340       C  0.68201222  0.04274517  0.04689326     0.04100
C1341       C  0.75158801  0.99559409  0.00826719     0.38700
C1342       C  0.67015117  0.10439334  0.04891969     0.38700
C1343       C  0.65142051  0.03577953  0.06339810     0.37200
C1344       C  0.77167810  0.06217597  0.49860338     0.37200
N1345       N  0.62708402  0.03027274  0.07671322    -0.37700
N1346       N  0.79257590  0.06551339  0.48161984    -0.37700
N1347       N  0.65158197  0.12609473  0.05449060    -0.37100
N1348       N  0.78623283  0.97782254  0.52061296    -0.37100
C1349       C  0.67268322  0.18738496  0.99795399    -0.03800
C1350       C  0.65276426  0.17544286  0.47339250    -0.00900
C1351       C  0.63003507  0.19915827  0.46156796     0.04100
C1352       C  0.62695449  0.23182029  0.47349253    -0.03800
C1353       C  0.63445627  0.23564801  0.00757822    -0.00900
C1354       C  0.65841752  0.21106162  0.01699270     0.04100
C1355       C  0.64466283  0.13981932  0.46913937     0.38700
C1356       C  0.61918668  0.25993097  0.02611960     0.38700
C1357       C  0.66750151  0.20903537  0.04586141     0.37200
C1358       C  0.60460061  0.18762722  0.44163815     0.37200
N1359       N  0.67463706  0.20610323  0.06896176    -0.37700
N1360       N  0.58317628  0.17753093  0.42703181    -0.37700
N1361       N  0.60542111  0.27927520  0.04023425    -0.37100
N1362       N  0.63570486  0.11177487  0.46633616    -0.37100
C1363       C  0.06475213  0.24278200  0.18246301    -0.03800
C1364       C  0.05600065  0.21030679  0.17046355    -0.00900
C1365       C  0.02215236  0.20282441  0.16114792     0.04100
C1366       C  0.99607325  0.22633954  0.16533175    -0.03800
C1367       C  0.00315192  0.25608186  0.18068288    -0.00900
C1368       C  0.03647537  0.26297118  0.19099546     0.04100
C1369       C  0.08045690  0.18309492  0.16855735     0.38700
C1370       C  0.97645978  0.28112729  0.18439223     0.38700
C1371       C  0.03862692  0.28726516  0.21347595     0.37200
C1372       C  0.01426007  0.17125274  0.14655877     0.37200
N1373       N  0.03696881  0.30587064  0.23211516    -0.37700
N1374       N  0.00804218  0.14616754  0.13479827    -0.37700
N1375       N  0.95562620  0.30158487  0.18678452    -0.37100
N1376       N  0.09829985  0.16015637  0.16543863    -0.37100
C1377       C  0.83365096  0.27723443  0.20758074    -0.03800
C1378       C  0.79739854  0.27643372  0.20738567    -0.00900
C1379       C  0.77873482  0.30228241  0.22056822     0.04100
C1380       C  0.79593777  0.32868133  0.23575136    -0.03800
C1381       C  0.83225556  0.32896922  0.23632982    -0.00900
C1382       C  0.85064365  0.30157590  0.22469907     0.04100
C1383       C  0.77891793  0.24841483  0.19409957     0.38700
C1384       C  0.85078450  0.35789868  0.24813786     0.38700
C1385       C  0.88660018  0.29780237  0.23165627     0.37200
C1386       C  0.74177841  0.30263154  0.21653549     0.37200
N1387       N  0.91499351  0.29461347  0.23819990    -0.37700
N1388       N  0.71240817  0.30234781  0.21265976    -0.37700
N1389       N  0.86544652  0.38123579  0.25729793    -0.37100
N1390       N  0.76359978  0.22631832  0.18374012    -0.37100
C1391       C  0.83206513  0.14834860  0.09631165    -0.03800
C1392       C  0.84276982  0.13253379  0.07140209    -0.00900
C1393       C  0.81807914  0.12073255  0.05170875     0.04100
C1394       C  0.78270325  0.12777453  0.05512579    -0.03800
C1395       C  0.77188007  0.13821807  0.08187393    -0.00900
C1396       C  0.79641086  0.14674267  0.10277403     0.04100
C1397       C  0.87922111  0.12944550  0.06555156     0.38700
C1398       C  0.73571388  0.14234115  0.08776741     0.38700
C1399       C  0.78472086  0.15611775  0.13027520     0.37200
C1400       C  0.82935342  0.10104034  0.02813548     0.37200
N1401       N  0.77578555  0.16299251  0.15249685    -0.37700
N1402       N  0.84015800  0.08488483  0.01009165    -0.37700
N1403       N  0.70715755  0.14577021  0.09381884    -0.37100
N1404       N  0.90832247  0.12717142  0.06078003    -0.37100
C1405       C  0.75009636  0.38699234  0.13843467    -0.03800
C1406       C  0.74716548  0.36068183  0.15790525    -0.00900
C1407       C  0.75821351  0.36779218  0.18493507     0.04100
C1408       C  0.74090032  0.39398403  0.19809119    -0.03800
C1409       C  0.73841642  0.42344635  0.18041133    -0.00900
C1410       C  0.74529459  0.42015424  0.15054241     0.04100
C1411       C  0.72088349  0.33490285  0.15463874     0.38700
C1412       C  0.73106031  0.45619454  0.19258517     0.38700
C1413       C  0.74804914  0.44993551  0.13314859     0.37200
C1414       C  0.79498607  0.37380807  0.18671513     0.37200
N1415       N  0.75099113  0.47390957  0.11936498    -0.37700
N1416       N  0.82383361  0.38135066  0.18817253    -0.37700
N1417       N  0.72527496  0.48240838  0.20239772    -0.37100
N1418       N  0.69941974  0.31420849  0.15379951    -0.37100
C1419       C  0.74155762  0.22891513  0.02269905    -0.03800
C1420       C  0.76895614  0.24079961  0.04053078    -0.00900
C1421       C  0.77336344  0.27558979  0.04677185     0.04100
C1422       C  0.74519618  0.29689378  0.04563607    -0.03800
C1423       C  0.71741739  0.28602653  0.02884472    -0.00900
C1424       C  0.71997252  0.25551616  0.01329429     0.04100
C1425       C  0.79359250  0.21983448  0.05407615     0.38700
C1426       C  0.68789104  0.30741684  0.02510245     0.38700
C1427       C  0.70586482  0.25622169  0.98567047     0.37200
C1428       C  0.80699862  0.28843073  0.05457735     0.37200
N1429       N  0.69828413  0.25823650  0.46046716    -0.37700
N1430       N  0.83500970  0.29703470  0.05883961    -0.37700
N1431       N  0.66455182  0.32466702  0.02131161    -0.37100
N1432       N  0.81623075  0.20650125  0.06464519    -0.37100
C1433       C  0.81770294  0.36549591  0.10068188    -0.03800
C1434       C  0.84552386  0.37024944  0.08136146     0.07100
C1435       C  0.87557734  0.35030045  0.08404002     0.04100
C1436       C  0.88181597  0.33440061  0.10950009    -0.03800
C1437       C  0.86177476  0.34502817  0.13164603    -0.00900
C1438       C  0.82683265  0.34974666  0.12606884     0.04100
C1439       C  0.84514838  0.39635553  0.06050634     0.38700
C1440       C  0.87496408  0.34165004  0.15939783     0.38700
C1441       C  0.80488127  0.32448122  0.13863082     0.37200
C1442       C  0.89963870  0.34635632  0.06132768     0.37200
N1443       N  0.78940485  0.30297011  0.14952450    -0.37700
N1444       N  0.91885387  0.34318442  0.04311155    -0.37700
N1445       N  0.88761970  0.34061378  0.18103939    -0.37100
N1446       N  0.84811472  0.41823881  0.04466356    -0.37100
C1447       C  0.68935211  0.49904662  0.05472618    -0.03800
C1448       C  0.68262838  0.48194799  0.07981732    -0.00900
C1449       C  0.68560215  0.44637208  0.08122101     0.04100
C1450       C  0.70000973  0.42794977  0.05853256    -0.03800
C1451       C  0.69833514  0.44409925  0.03225588    -0.00900
C1452       C  0.69462409  0.47977777  0.03043988     0.04100
C1453       C  0.67225695  0.50091412  0.10437405     0.38700
C1454       C  0.69292856  0.42432363  0.00732101     0.38700
C1455       C  0.69759748  0.49657805  0.00371622     0.37200
C1456       C  0.66798311  0.42971497  0.10403197     0.37200
N1457       N  0.67650876  0.50121342  0.48000557    -0.37700
N1458       N  0.65238928  0.41741970  0.12203881    -0.37700
N1459       N  0.68667595  0.41061837  0.98661386    -0.37100
N1460       N  0.66427186  0.51582155  0.12406525    -0.37100
C1461       C  0.69190864  0.30916502  0.09047848    -0.03800
C1462       C  0.65599148  0.31468909  0.08987980    -0.00900
C1463       C  0.63259205  0.29043820  0.10137643     0.04100
C1464       C  0.64470500  0.26101724  0.11488406    -0.03800
C1465       C  0.68039572  0.25475435  0.11451405    -0.00900
C1466       C  0.70364800  0.27810587  0.10200626     0.04100
C1467       C  0.64266527  0.34545529  0.07768503     0.38700
C1468       C  0.69412850  0.22555088  0.12903071     0.38700
C1469       C  0.73993469  0.27089497  0.10446653     0.37200
C1470       C  0.59584934  0.29669253  0.10037715     0.37200
N1471       N  0.76813245  0.26246045  0.10690777    -0.37700
N1472       N  0.56658915  0.30172278  0.09971351    -0.37700
N1473       N  0.70537253  0.20250933  0.14057889    -0.37100
N1474       N  0.63153289  0.36971823  0.06783456    -0.37100
C1475       C  0.81049995  0.38130845  0.48467079    -0.03800
C1476       C  0.79282731  0.35680795  0.98740819    -0.00900
C1477       C  0.76208488  0.36570806  0.00012169     0.04100
C1478       C  0.76096507  0.39460614  0.01743062    -0.03800
C1479       C  0.78505989  0.42099895  0.01055885    -0.00900
C1480       C  0.81118990  0.41560786  0.98961486     0.04100
C1481       C  0.79933148  0.31982512  0.49420207     0.38700
C1482       C  0.78379750  0.45276447  0.02571558     0.38700
C1483       C  0.82243168  0.44340504  0.48469343     0.37200
C1484       C  0.73143266  0.35186838  0.98744763     0.37200
N1485       N  0.83935108  0.46640441  0.47770321    -0.37700
N1486       N  0.70835597  0.34128840  0.97472194    -0.37700
N1487       N  0.78287430  0.47806037  0.03804343    -0.37100
N1488       N  0.80867081  0.29226451  0.49668140    -0.37100
C1489       C  0.75813673  0.35519823  0.56490401     0.47000
H1490       H  0.78217763  0.34850506  0.55386319    -0.02000
C1491       C  0.70207029  0.36913277  0.59078869     0.47100
H1492       H  0.67780365  0.37218279  0.60205122    -0.02000
C1493       C  0.73222437  0.32515879  0.56545127    -0.15700
C1494       C  0.76425281  0.36679807  0.59565083    -0.15500
C1495       C  0.73890932  0.38368947  0.55009924    -0.15800
C1496       C  0.70294516  0.33200940  0.58007121    -0.15800
C1497       C  0.73376027  0.37388652  0.61000545    -0.15400
C1498       C  0.70876514  0.39267071  0.56454134    -0.15700
O1499       O  0.83151534  0.26214277  0.66740153    -0.56300
C1500       C  0.84493296  0.18694396  0.61347894     0.76400
O1501       O  0.89677407  0.30147319  0.64500508    -0.57400
C1502       C  0.84306139  0.26462661  0.69189530     0.76300
C1503       C  0.95428720  0.22909520  0.65361956     0.78700
Cd1504     Cd  0.88351972  0.24076757  0.64394804     1.37500
O1505       O  0.84250765  0.19044017  0.63957798    -0.56300
O1506       O  0.93163986  0.21638869  0.66975992    -0.55100
C1507       C  0.88314016  0.30862340  0.62208379     0.78700
O1508       O  0.94409010  0.24178610  0.63112179    -0.57400
O1509       O  0.86681099  0.20640826  0.60171038    -0.55900
O1510       O  0.87304214  0.25317203  0.69538417    -0.55900
O1511       O  0.87598164  0.28363289  0.60638174    -0.55000
C1512       C  0.77019750  0.16592405  0.51494747     0.47000
H1513       H  0.79427267  0.17482239  0.52340485    -0.02000
C1514       C  0.71940892  0.13365156  0.49280591     0.47100
H1515       H  0.69776491  0.11971596  0.98416881    -0.02000
C1516       C  0.73906942  0.18992377  0.51240164    -0.15700
C1517       C  0.77749651  0.15437488  0.48555330    -0.15500
C1518       C  0.75916039  0.13495393  0.53165226    -0.15800
C1519       C  0.71026990  0.17163600  0.50108792    -0.15800
C1520       C  0.75052877  0.13862233  0.97170485    -0.15400
C1521       C  0.73212716  0.11754395  0.51987159    -0.15700
O1522       O  0.86614518  0.32225267  0.87536576    -0.56300
C1523       C  0.84708716  0.37112367  0.96166230     0.76400
O1524       O  0.87933442  0.27558310  0.94745493    -0.57400
C1525       C  0.87439541  0.29107651  0.87249436     0.76300
C1526       C  0.95896998  0.31674776  0.94211933     0.78700
Cd1527     Cd  0.88900648  0.32753441  0.92485013     1.37500
O1528       O  0.85287313  0.38123661  0.93683979    -0.56300
O1529       O  0.95388131  0.33630525  0.92140127    -0.55100
C1530       C  0.84873742  0.27196153  0.93883850     0.78700
O1531       O  0.93240143  0.30766799  0.95547701    -0.57400
O1532       O  0.86490884  0.34635555  0.96941357    -0.55900
O1533       O  0.89599569  0.28053069  0.88987580    -0.55900
O1534       O  0.83592789  0.29649005  0.92587422    -0.55000
C1535       C  0.70014289  0.36235549  0.77930468     0.47000
H1536       H  0.68086394  0.34970106  0.79249624    -0.02000
C1537       C  0.74770545  0.39095151  0.74990380     0.47100
H1538       H  0.76699844  0.40257656  0.73631880    -0.02000
C1539       C  0.73273107  0.34086672  0.77727597    -0.15700
C1540       C  0.68809257  0.37092694  0.74906491    -0.15500
C1541       C  0.71200424  0.39567565  0.79234333    -0.15800
C1542       C  0.75703734  0.35419826  0.75955159    -0.15800
C1543       C  0.71412183  0.38653924  0.73300232    -0.15400
C1544       C  0.73853524  0.41185430  0.77709816    -0.15700
O1545       O  0.64273387  0.19030214  0.69363034    -0.56300
C1546       C  0.60072085  0.23603414  0.62325496     0.76400
O1547       O  0.53872863  0.21726434  0.70733143    -0.57400
C1548       C  0.63393741  0.16121439  0.70238112     0.76300
C1549       C  0.60860159  0.26995671  0.70066528     0.78700
Cd1550     Cd  0.58615777  0.20854847  0.67573409     1.37500
O1551       O  0.60361599  0.20399969  0.62647903    -0.56300
O1552       O  0.62216394  0.26013812  0.67828836    -0.55100
C1553       C  0.51446548  0.21276298  0.69022403     0.78700
O1554       O  0.58613577  0.25043393  0.71153609    -0.57400
O1555       O  0.58193166  0.25133682  0.64041272    -0.55900
O1556       O  0.60373802  0.15116451  0.69569269    -0.55900
O1557       O  0.52261709  0.19974431  0.66691314    -0.55000
C1558       C  0.72074342  0.18134820  0.81305834     0.47000
H1559       H  0.69736100  0.19532704  0.80802274    -0.02000
C1560       C  0.77387174  0.14871418  0.82912252     0.47100
H1561       H  0.79661012  0.13375831  0.83488527    -0.02000
C1562       C  0.75480049  0.20167619  0.80785539    -0.15700
C1563       C  0.71908001  0.17105603  0.84414087    -0.15500
C1564       C  0.72440538  0.14894669  0.79622755    -0.15800
C1565       C  0.78357081  0.18648645  0.81967992    -0.15800
C1566       C  0.74696874  0.15215319  0.85291852    -0.15400
C1567       C  0.75261390  0.13065692  0.80498290    -0.15700
O1568       O  0.62192627  0.29261817  0.96244823    -0.56300
C1569       C  0.63050026  0.36003438  0.88704573     0.76400
O1570       O  0.60994747  0.27930869  0.87736257    -0.57400
C1571       C  0.60756734  0.26313417  0.96426398     0.76300
C1572       C  0.51445158  0.31439632  0.92297712     0.78700
Cd1573     Cd  0.58707813  0.30743990  0.91802704     1.37500
O1574       O  0.63718337  0.35327002  0.91238442    -0.56300
O1575       O  0.53356231  0.32817434  0.94136709    -0.55100
C1576       C  0.60837389  0.24987539  0.88789274     0.78700
O1577       O  0.52900763  0.30580064  0.90057553    -0.57400
O1578       O  0.60347668  0.34528010  0.87798022    -0.55900
O1579       O  0.58266924  0.25792990  0.94802865    -0.55900
O1580       O  0.58829345  0.24566386  0.90804196    -0.55000
C1581       C  0.65980210  0.72663898  0.69358985     0.47000
H1582       H  0.67286688  0.70832879  0.68024519    -0.02000
C1583       C  0.62639166  0.77214469  0.72015950     0.47100
H1584       H  0.61124666  0.79174872  0.73101928    -0.02000
C1585       C  0.62365442  0.73004678  0.68222581    -0.15700
C1586       C  0.65614236  0.71790353  0.72496690    -0.15500
C1587       C  0.67727420  0.76195160  0.69263196    -0.15800
C1588       C  0.60560485  0.75502478  0.69590431    -0.15800
C1589       C  0.63814282  0.74288876  0.73983218    -0.15400
C1590       C  0.66001823  0.78662211  0.70660779    -0.15700
O1591       O  0.84982467  0.65366525  0.79336413    -0.56300
C1592       C  0.76103510  0.64015546  0.84627551     0.76400
O1593       O  0.74567002  0.59091690  0.77778732    -0.57400
C1594       C  0.84603648  0.65351281  0.76709549     0.76300
C1595       C  0.80532361  0.54026996  0.80636387     0.78700
Cd1596     Cd  0.79795076  0.61144168  0.80220126     1.37500
O1597       O  0.79358070  0.64518064  0.84511595    -0.56300
O1598       O  0.80886005  0.55807456  0.82823446    -0.55100
C1599       C  0.73460727  0.62074499  0.77499087     0.78700
O1600       O  0.80710390  0.55571929  0.78340070    -0.57400
O1601       O  0.74892371  0.61542246  0.83261772    -0.55900
O1602       O  0.82234967  0.63374337  0.75834834    -0.55900
O1603       O  0.75324354  0.64509366  0.78383734    -0.55000
C1604       C  0.83928013  0.73073082  0.66233970     0.47000
H1605       H  0.82429315  0.71609414  0.67718096    -0.02000
C1606       C  0.87260013  0.77421496  0.63242496     0.47100
H1607       H  0.88685423  0.79363172  0.62006391    -0.02000
C1608       C  0.87447859  0.73892107  0.67489363    -0.15700
C1609       C  0.84704251  0.71561810  0.63328676    -0.15500
C1610       C  0.81997423  0.76393443  0.65734688    -0.15800
C1611       C  0.89230586  0.76318539  0.65930351    -0.15800
C1612       C  0.86393866  0.74007624  0.61618599    -0.15400
C1613       C  0.83746770  0.78788365  0.64238905    -0.15700
O1614       O  0.65347967  0.64611630  0.56524746    -0.56300
C1615       C  0.73711779  0.62744481  0.50664656     0.76400
O1616       O  0.74915597  0.58861284  0.58767737    -0.57400
C1617       C  0.65606000  0.64403584  0.59148856     0.76300
C1618       C  0.68338120  0.53255580  0.55213109     0.78700
Cd1619     Cd  0.70269505  0.60308984  0.55526272     1.37500
O1620       O  0.75060175  0.60498961  0.52156353    -0.56300
O1621       O  0.67146292  0.55249347  0.53399584    -0.55100
C1622       C  0.76526163  0.61651605  0.58371958     0.78700
O1623       O  0.70256842  0.54576562  0.57040418    -0.57400
O1624       O  0.70503401  0.63226538  0.51020970    -0.55900
O1625       O  0.67848499  0.62354827  0.59965602    -0.55900
O1626       O  0.75284841  0.63690140  0.56636613    -0.55000
C1627       C  0.64969832  0.79854909  0.90317675     0.47000
H1628       H  0.66162268  0.81940911  0.91517753    -0.02000
C1629       C  0.62445412  0.74662989  0.87692133     0.47100
H1630       H  0.61255837  0.72474261  0.86579997    -0.02000
C1631       C  0.62093756  0.78136755  0.91997989    -0.15700
C1632       C  0.63309710  0.80829710  0.87437562    -0.15500
C1633       C  0.67659348  0.77054250  0.89749585    -0.15800
C1634       C  0.60681840  0.75376057  0.90585119    -0.15800
C1635       C  0.62165246  0.77915858  0.85950800    -0.15400
C1636       C  0.66385797  0.74382844  0.88176710    -0.15700
O1637       O  0.83146368  0.90056870  0.82861593    -0.56300
C1638       C  0.75425476  0.88790664  0.75066603     0.76400
O1639       O  0.72922287  0.92003308  0.84073266    -0.57400
C1640       C  0.82175324  0.87248701  0.83936811     0.76300
C1641       C  0.78064977  0.98615448  0.80273834     0.78700
Cd1642     Cd  0.77402625  0.91382008  0.80435285     1.37500
O1643       O  0.78176503  0.87791673  0.76207533    -0.56300
O1644       O  0.79714186  0.96880272  0.78500842    -0.55100
C1645       C  0.70507160  0.90560578  0.82725236     0.78700
O1646       O  0.76693163  0.97003825  0.82269898    -0.57400
O1647       O  0.74203567  0.91518099  0.75993429    -0.55900
O1648       O  0.79147447  0.86300272  0.83301166    -0.55900
O1649       O  0.71308495  0.89460283  0.80353688    -0.55000
C1650       C  0.84108510  0.79949024  0.95058905     0.47000
H1651       H  0.83265922  0.82501850  0.94643947    -0.02000
C1652       C  0.86580817  0.74206556  0.96489670     0.47100
H1653       H  0.87744764  0.71769152  0.97088543    -0.02000
C1654       C  0.87045859  0.79088437  0.93166426    -0.15700
C1655       C  0.85361031  0.79851931  0.98119665    -0.15500
C1656       C  0.81485656  0.76998229  0.94612922    -0.15800
C1657       C  0.88515742  0.76014814  0.93945527    -0.15800
C1658       C  0.86691699  0.76782035  0.98933226    -0.15400
C1659       C  0.82642308  0.73937691  0.95691799    -0.15700
O1660       O  0.69362650  0.85301289  0.52616711    -0.56300
C1661       C  0.73989981  0.88522993  0.60104020     0.76400
O1662       O  0.77318126  0.90173947  0.54676497    -0.57400
C1663       C  0.66161289  0.85592615  0.52328080     0.76300
C1664       C  0.69790554  0.97682077  0.54210828     0.78700
Cd1665     Cd  0.70965025  0.90686762  0.54961791     1.37500
O1666       O  0.71149151  0.87218096  0.59275750    -0.56300
O1667       O  0.68955283  0.96384510  0.56533676    -0.55100
C1668       C  0.77381739  0.89501613  0.52122118     0.78700
O1669       O  0.70463406  0.95662717  0.52249362    -0.57400
O1670       O  0.74858685  0.91339205  0.59031798    -0.55900
O1671       O  0.64939574  0.88227410  0.53478722    -0.55900
O1672       O  0.74647013  0.90076333  0.50791769    -0.55000
C1673       C  0.33523413  0.30909854  0.71576345     0.47000
H1674       H  0.32281732  0.32811074  0.70259579    -0.02000
C1675       C  0.36200688  0.26235213  0.74569371     0.47100
H1676       H  0.37369956  0.24181829  0.75771567    -0.02000
C1677       C  0.36368127  0.29162884  0.69981480    -0.15700
C1678       C  0.35241181  0.32384998  0.74316934    -0.15500
C1679       C  0.30948303  0.27979492  0.72400078    -0.15800
C1680       C  0.37888501  0.26705246  0.71590214    -0.15800
C1681       C  0.36355648  0.29738574  0.76068766    -0.15400
C1682       C  0.32307216  0.25609773  0.74153942    -0.15700
O1683       O  0.19146924  0.36991315  0.77377945    -0.56300
C1684       C  0.23556296  0.38959143  0.85077880     0.76400
O1685       O  0.27786344  0.42749716  0.80283395    -0.57400
C1686       C  0.16042183  0.37847666  0.77096108     0.76300
C1687       C  0.19620655  0.49096547  0.80280604     0.78700
Cd1688     Cd  0.21443336  0.42144706  0.79999721     1.37500
O1689       O  0.23353325  0.37491504  0.82743105    -0.56300
O1690       O  0.18822091  0.47078264  0.82245140    -0.55100
C1691       C  0.28342684  0.42647273  0.77705682     0.78700
O1692       O  0.21103142  0.47837162  0.78180037    -0.57400
O1693       O  0.22473297  0.41977661  0.85200635    -0.55900
O1694       O  0.15316774  0.40671915  0.78207574    -0.55900
O1695       O  0.25681852  0.42642409  0.76180017    -0.55000
C1696       C  0.14633382  0.30527744  0.67701473     0.47000
H1697       H  0.15288587  0.32861918  0.68722670    -0.02000
C1698       C  0.12221431  0.25644347  0.64798556     0.47100
H1699       H  0.11291776  0.23645878  0.63384439    -0.02000
C1700       C  0.11065251  0.29544162  0.68652222    -0.15700
C1701       C  0.14668298  0.31306629  0.64621159    -0.15500
C1702       C  0.16821885  0.27366111  0.68095377    -0.15800
C1703       C  0.09627641  0.26814195  0.67163435    -0.15800
C1704       C  0.13283265  0.28797928  0.62988231    -0.15400
C1705       C  0.15590228  0.24679875  0.66398392    -0.15700
O1706       O  0.31716508  0.36113013  0.58305386    -0.56300
C1707       C  0.23977892  0.39753638  0.53864198     0.76400
O1708       O  0.23252811  0.41838479  0.59694217    -0.57400
C1709       C  0.33913355  0.36764020  0.60180871     0.76300
C1710       C  0.29944821  0.49205069  0.57400153     0.78700
Cd1711     Cd  0.29086933  0.41992095  0.57996454     1.37500
O1712       O  0.26965384  0.40716957  0.53025925    -0.56300
O1713       O  0.30363936  0.47374698  0.55252298    -0.55100
C1714       C  0.23974129  0.41658079  0.62231036     0.78700
O1715       O  0.29943473  0.47691542  0.59707075    -0.57400
O1716       O  0.23615596  0.39636040  0.56467623    -0.55900
O1717       O  0.34342951  0.39908036  0.60664452    -0.55900
O1718       O  0.27079541  0.42257709  0.62889720    -0.55000
C1719       C  0.32703513  0.23394328  0.91583468     0.47000
H1720       H  0.31655896  0.20821340  0.91713973    -0.02000
C1721       C  0.35264732  0.29397322  0.90835829     0.47100
H1722       H  0.36436621  0.31962228  0.90572705    -0.02000
C1723       C  0.35561641  0.24038717  0.93666009    -0.15700
C1724       C  0.34103959  0.24061749  0.88577950    -0.15500
C1725       C  0.30134514  0.26177592  0.92295671    -0.15800
C1726       C  0.37112894  0.27235420  0.93188415    -0.15800
C1727       C  0.35518927  0.27243073  0.88151818    -0.15400
C1728       C  0.31293417  0.29404303  0.91573184    -0.15700
O1729       O  0.13525570  0.15432216  0.83834087    -0.56300
C1730       C  0.22574025  0.15485990  0.78946686     0.76400
O1731       O  0.22262646  0.14630783  0.86917536    -0.57400
C1732       C  0.13447185  0.15144763  0.86471459     0.76300
C1733       C  0.18818577  0.04807046  0.83220093     0.78700
Cd1734     Cd  0.18952975  0.11849494  0.83330216     1.37500
O1735       O  0.19430709  0.16114020  0.79486801    -0.56300
O1736       O  0.17827141  0.06331261  0.81046943    -0.55100
C1737       C  0.25104291  0.14016437  0.85734409     0.78700
O1738       O  0.18952295  0.06494965  0.85447191    -0.57400
O1739       O  0.23659396  0.12772442  0.79981427    -0.55900
O1740       O  0.15708802  0.13250104  0.87503753    -0.55900
O1741       O  0.25145714  0.11617315  0.84002460    -0.55000
C1742       C  0.14168528  0.22249706  0.97316760     0.47000
H1743       H  0.15286159  0.20013013  0.96342754    -0.02000
C1744       C  0.11093390  0.27206558  0.99669805     0.47100
H1745       H  0.09507962  0.29203532  0.00590454    -0.02000
C1746       C  0.10892352  0.23220210  0.95767673    -0.15700
C1747       C  0.13141607  0.21396674  0.00316122    -0.15500
C1748       C  0.16515905  0.25528986  0.97511230    -0.15800
C1749       C  0.09259645  0.25886679  0.97020946    -0.15800
C1750       C  0.11601313  0.24116375  0.01645477    -0.15400
C1751       C  0.14799853  0.28268919  0.98748650    -0.15700
O1752       O  0.33259714  0.16167731  0.55547542    -0.56300
C1753       C  0.25337312  0.15013328  0.61975377     0.76400
O1754       O  0.23740233  0.11059933  0.53211161    -0.57400
C1755       C  0.32144151  0.16919474  0.53151401     0.76300
C1756       C  0.29449010  0.04875817  0.56614671     0.78700
Cd1757     Cd  0.27952996  0.12184211  0.56864638     1.37500
O1758       O  0.28261861  0.15957405  0.61037213    -0.56300
O1759       O  0.26948561  0.06293841  0.55470909    -0.55100
C1760       C  0.21495404  0.13046901  0.54167530     0.78700
O1761       O  0.31396395  0.06822181  0.58055367    -0.57400
O1762       O  0.24110516  0.12267343  0.60992448    -0.55900
O1763       O  0.29271424  0.15552298  0.52556355    -0.55900
O1764       O  0.22119282  0.14400382  0.56498254    -0.55000
C1765       C  0.23924314  0.86494688  0.54026339     0.47000
H1766       H  0.21347372  0.86068896  0.54906816    -0.02000
C1767       C  0.29899967  0.88027258  0.52003425     0.47100
H1768       H  0.32497775  0.88730361  0.51251747    -0.02000
C1769       C  0.26302896  0.83450710  0.54135133    -0.15700
C1770       C  0.23819228  0.87557460  0.50937141    -0.15500
C1771       C  0.25725828  0.89320829  0.55658199    -0.15800
C1772       C  0.29489080  0.84126311  0.52903011    -0.15800
C1773       C  0.26245681  0.87757347  0.00110643    -0.15400
C1774       C  0.28857800  0.90349918  0.54543745    -0.15700
O1775       O  0.12693159  0.73707653  0.90657386    -0.56300
C1776       C  0.13869043  0.66631691  0.98107980     0.76400
O1777       O  0.09712108  0.77403187  0.97777198    -0.57400
C1778       C  0.11815099  0.76800447  0.91006043     0.76300
C1779       C  0.02595602  0.71471573  0.94595928     0.78700
Cd1780     Cd  0.09836897  0.71904142  0.95283840     1.37500
O1781       O  0.14527068  0.67491692  0.95604131    -0.56300
O1782       O  0.04509767  0.70182352  0.92733456    -0.55100
C1783       C  0.12899457  0.77235672  0.98272103     0.78700
O1784       O  0.03977879  0.72113124  0.96929297    -0.57400
O1785       O  0.11028952  0.67681014  0.99074342    -0.55900
O1786       O  0.09749153  0.77328978  0.92969954    -0.55900
O1787       O  0.14228270  0.74339211  0.98128045    -0.55000
C1788       C  0.20777943  0.67229735  0.58568018     0.47000
H1789       H  0.18626210  0.68177098  0.57401755    -0.02000
C1790       C  0.25852994  0.64731433  0.61257174     0.47100
H1791       H  0.28100520  0.63669765  0.62356775    -0.02000
C1792       C  0.23580185  0.69999169  0.59163821    -0.15700
C1793       C  0.19676314  0.65585202  0.61414397    -0.15500
C1794       C  0.22492124  0.64416875  0.56931271    -0.15800
C1795       C  0.26227833  0.68636559  0.60710741    -0.15800
C1796       C  0.22450759  0.64313766  0.62944120    -0.15400
C1797       C  0.25201651  0.63048536  0.58337546    -0.15700
O1798       O  0.14884610  0.80347160  0.69310441    -0.56300
C1799       C  0.15125777  0.87016866  0.63051949     0.76400
O1800       O  0.09913203  0.76949519  0.62582836    -0.57400
C1801       C  0.12918700  0.79486314  0.71306336     0.76300
C1802       C  0.03237805  0.81747280  0.66032207     0.78700
Cd1803     Cd  0.10602789  0.81814350  0.65915685     1.37500
O1804       O  0.13882285  0.84406679  0.61851613    -0.56300
O1805       O  0.04841907  0.83545355  0.67823066    -0.55100
C1806       C  0.11524010  0.74892979  0.64104567     0.78700
O1807       O  0.04970239  0.80711768  0.63979681    -0.57400
O1808       O  0.14034809  0.87493858  0.65510307    -0.55900
O1809       O  0.09762452  0.80143147  0.70985501    -0.55900
O1810       O  0.12909812  0.76136256  0.66240935    -0.55000
C1811       C  0.25491817  0.67398360  0.79544029     0.47000
H1812       H  0.28057494  0.67895397  0.80380461    -0.02000
C1813       C  0.19780424  0.65811917  0.77156011     0.47100
H1814       H  0.17334577  0.65370033  0.76092940    -0.02000
C1815       C  0.22841163  0.70242713  0.79858835    -0.15700
C1816       C  0.25868363  0.66461153  0.76416939    -0.15500
C1817       C  0.23739973  0.64409121  0.80963506    -0.15800
C1818       C  0.19992178  0.69615497  0.78209824    -0.15800
C1819       C  0.22858910  0.65388140  0.75164268    -0.15400
C1820       C  0.20622989  0.63428930  0.79721186    -0.15700
O1821       O  0.38115906  0.75584385  0.68383862    -0.56300
C1822       C  0.35986922  0.85561817  0.74514781     0.76400
O1823       O  0.38349642  0.76888896  0.76002474    -0.57400
C1824       C  0.35716502  0.77129210  0.67200982     0.76300
C1825       C  0.46885104  0.80474383  0.70322225     0.78700
Cd1826     Cd  0.39817950  0.80063199  0.71711110     1.37500
O1827       O  0.36024617  0.85248210  0.71888987    -0.56300
O1828       O  0.44714870  0.81605870  0.68621428    -0.55100
C1829       C  0.38092698  0.74073669  0.74722962     0.78700
O1830       O  0.45867275  0.79922532  0.72774088    -0.57400
O1831       O  0.37974968  0.83596027  0.75805333    -0.55900
O1832       O  0.35321577  0.80202974  0.67937761    -0.55900
O1833       O  0.39527118  0.73905341  0.72381633    -0.55000
C1834       C  0.27302515  0.86209600  0.83716802     0.47000
H1835       H  0.29249806  0.85025978  0.82406226    -0.02000
C1836       C  0.22930802  0.89587483  0.86591903     0.47100
H1837       H  0.21030874  0.91139090  0.87694883    -0.02000
C1838       C  0.23921305  0.84113248  0.84241396    -0.15700
C1839       C  0.28638611  0.87183630  0.86626590    -0.15500
C1840       C  0.26401114  0.89507726  0.82294460    -0.15800
C1841       C  0.21490123  0.85954612  0.85831649    -0.15800
C1842       C  0.26374178  0.89074188  0.88205112    -0.15400
C1843       C  0.24030901  0.91276869  0.83807767    -0.15700
O1844       O  0.36981468  0.70258844  0.96726960    -0.56300
C1845       C  0.34196692  0.65665234  0.89066141     0.76400
O1846       O  0.36707382  0.73760194  0.88356078    -0.57400
C1847       C  0.37127746  0.73490474  0.97020459     0.76300
C1848       C  0.46775018  0.69563709  0.91471373     0.78700
Cd1849     Cd  0.39441805  0.70287565  0.91818062     1.37500
O1850       O  0.34176789  0.66234273  0.91670510    -0.56300
O1851       O  0.45285698  0.68883066  0.93755504    -0.55100
C1852       C  0.37834448  0.76561211  0.89311085     0.78700
O1853       O  0.44863979  0.69619978  0.89355948    -0.57400
O1854       O  0.36853862  0.66794643  0.87815747    -0.55900
O1855       O  0.38572574  0.75101163  0.95067865    -0.55900
O1856       O  0.40241213  0.76452493  0.91050770    -0.55000
C1857       C  0.31264070  0.84921634  0.87835084    -0.03800
C1858       C  0.34812936  0.85290059  0.87179711    -0.00900
C1859       C  0.37091564  0.82626823  0.87747369     0.04100
C1860       C  0.35808595  0.79630647  0.88986120    -0.03800
C1861       C  0.32402704  0.79474352  0.89980158    -0.00900
C1862       C  0.30106958  0.82025407  0.89312967     0.04100
C1863       C  0.36216025  0.88411992  0.86041451     0.38700
C1864       C  0.31227332  0.76632269  0.91665677     0.38700
C1865       C  0.26488259  0.81417642  0.89860012     0.37200
C1866       C  0.40677879  0.82950502  0.86936357     0.37200
N1867       N  0.23615799  0.80790567  0.90268679    -0.37700
N1868       N  0.43511314  0.83369365  0.86247758    -0.37700
N1869       N  0.30299702  0.74397202  0.93043880    -0.37100
N1870       N  0.37631477  0.90873897  0.85331626    -0.37100
C1871       C  0.28506680  0.90590119  0.79758098    -0.03800
C1872       C  0.32059516  0.91276609  0.80130845    -0.00900
C1873       C  0.34556854  0.89644757  0.78451977     0.04100
C1874       C  0.33530280  0.87844283  0.76052004    -0.03800
C1875       C  0.30069445  0.88175532  0.75205497    -0.00900
C1876       C  0.27545725  0.89390765  0.77098919     0.04100
C1877       C  0.33075061  0.94274428  0.81673822     0.38700
C1878       C  0.29185046  0.87547562  0.72337386     0.38700
C1879       C  0.24077791  0.89876052  0.76149184     0.37200
C1880       C  0.38196621  0.90087409  0.79026786     0.37200
N1881       N  0.21401695  0.90369530  0.75202348    -0.37700
N1882       N  0.41113327  0.90428101  0.79457644    -0.37700
N1883       N  0.28599379  0.87209499  0.70000142    -0.37100
N1884       N  0.34039814  0.96755088  0.82740317    -0.37100
C1885       C  0.23119567  0.73218345  0.81938671    -0.03800
C1886       C  0.26284723  0.74553518  0.82929414    -0.00900
C1887       C  0.26670369  0.78082756  0.83478280     0.04100
C1888       C  0.23749534  0.80300555  0.83470684    -0.03800
C1889       C  0.20612604  0.78797330  0.82619467    -0.00900
C1890       C  0.20228394  0.75235913  0.82460982     0.04100
C1891       C  0.29207667  0.72417775  0.83470074     0.38700
C1892       C  0.18496178  0.80742286  0.80768838     0.38700
C1893       C  0.16897542  0.73628877  0.82878770     0.37200
C1894       C  0.30200183  0.79281672  0.83267390     0.37200
N1895       N  0.14333091  0.72169635  0.83292898    -0.37700
N1896       N  0.33066381  0.79967637  0.82847784    -0.37700
N1897       N  0.16855864  0.82310497  0.79252517    -0.37100
N1898       N  0.31648379  0.70875132  0.83935131    -0.37100
C1899       C  0.29043226  0.67720200  0.74957020    -0.03800
C1900       C  0.29063961  0.71117470  0.74048192    -0.00900
C1901       C  0.31964308  0.73202898  0.74389583     0.04100
C1902       C  0.35099236  0.71827839  0.75215765    -0.03800
C1903       C  0.35299029  0.68299759  0.75668946    -0.00900
C1904       C  0.32250131  0.66250980  0.75570931     0.04100
C1905       C  0.26274469  0.72534634  0.72523567     0.38700
C1906       C  0.38584449  0.66824199  0.76320004     0.38700
C1907       C  0.32473124  0.62596393  0.75737139     0.37200
C1908       C  0.31718452  0.76814203  0.73786232     0.37200
N1909       N  0.32775431  0.59674002  0.75721862    -0.37700
N1910       N  0.31433521  0.79687525  0.73375204    -0.37700
N1911       N  0.41206975  0.65651004  0.76867976    -0.37100
N1912       N  0.24331201  0.74056380  0.71235692    -0.37100
C1913       C  0.25529054  0.63270551  0.83592039    -0.03800
C1914       C  0.25128725  0.65224382  0.86042321    -0.00900
C1915       C  0.27783609  0.65440096  0.88049725     0.04100
C1916       C  0.31104997  0.64194636  0.87486937    -0.03800
C1917       C  0.31423897  0.61997893  0.85155873    -0.00900
C1918       C  0.28560140  0.61361578  0.83356234     0.04100
C1919       C  0.22045260  0.67174034  0.86487012     0.38700
C1920       C  0.34672104  0.60385496  0.84604366     0.38700
C1921       C  0.28623363  0.58659054  0.81318972     0.37200
C1922       C  0.27100960  0.67098340  0.90649558     0.37200
N1923       N  0.28540044  0.56404122  0.79768723    -0.37700
N1924       N  0.26471162  0.68338356  0.92755728    -0.37700
N1925       N  0.37268233  0.59093453  0.84148774    -0.37100
N1926       N  0.19592630  0.68686877  0.86987665    -0.37100
C1927       C  0.17944569  0.72504885  0.76869142    -0.03800
C1928       C  0.19592211  0.75598958  0.75953921    -0.00900
C1929       C  0.17828706  0.77982142  0.74339205     0.04100
C1930       C  0.14336357  0.77517198  0.73699914    -0.03800
C1931       C  0.12510736  0.74783042  0.74980822    -0.00900
C1932       C  0.14313493  0.72233707  0.76471932     0.04100
C1933       C  0.23072237  0.76593467  0.76704066     0.38700
C1934       C  0.08799121  0.74537328  0.74718327     0.38700
C1935       C  0.12395675  0.69370986  0.77628117     0.37200
C1936       C  0.19604888  0.81094606  0.73488374     0.37200
N1937       N  0.10854849  0.67096556  0.78563964    -0.37700
N1938       N  0.21068821  0.83575580  0.72907795    -0.37700
N1939       N  0.05830556  0.74348123  0.74532019    -0.37100
N1940       N  0.25767553  0.77680559  0.77263259    -0.37100
C1941       C  0.22580868  0.63887551  0.66132980    -0.03800
C1942       C  0.23630978  0.66733445  0.67627761    -0.00900
C1943       C  0.22058850  0.67077171  0.70212530     0.04100
C1944       C  0.22499304  0.64472026  0.72097656    -0.03800
C1945       C  0.22925092  0.61191133  0.70845280    -0.00900
C1946       C  0.22717061  0.60845594  0.67821420     0.04100
C1947       C  0.27364812  0.66963401  0.67808087     0.38700
C1948       C  0.23588349  0.58289345  0.72583708     0.38700
C1949       C  0.23016644  0.57518575  0.66590888     0.37200
C1950       C  0.19188287  0.69274951  0.70506141     0.37200
N1951       N  0.23327914  0.54779177  0.65749577    -0.37700
N1952       N  0.17003564  0.71210105  0.70669821    -0.37700
N1953       N  0.24157765  0.55958242  0.73960741    -0.37100
N1954       N  0.30336760  0.67057109  0.67999898    -0.37100
C1955       C  0.11955240  0.71249582  0.63450575    -0.03800
C1956       C  0.11903134  0.69995803  0.60721998    -0.00900
C1957       C  0.13558032  0.66912793  0.60201575     0.04100
C1958       C  0.15888763  0.65679357  0.62199162    -0.03800
C1959       C  0.14813222  0.66104257  0.64952529    -0.00900
C1960       C  0.12713239  0.68907928  0.65581321     0.04100
C1961       C  0.10122462  0.71749009  0.58527025     0.38700
C1962       C  0.14880523  0.63195189  0.66769936     0.38700
C1963       C  0.10824467  0.69035265  0.68172376     0.37200
C1964       C  0.12644345  0.64898310  0.57802404     0.37200
N1965       N  0.09287871  0.69030704  0.70235121    -0.37700
N1966       N  0.11663398  0.63312172  0.55932032    -0.37700
N1967       N  0.14830672  0.60808253  0.68171298    -0.37100
N1968       N  0.08688142  0.73142231  0.56772849    -0.37100
C1969       C  0.28760017  0.70809613  0.62322041    -0.03800
C1970       C  0.27517864  0.73077849  0.64371722    -0.00900
C1971       C  0.29763639  0.75457917  0.65649424     0.04100
C1972       C  0.33348518  0.75270263  0.65258180    -0.03800
C1973       C  0.34627568  0.72910550  0.63301352    -0.00900
C1974       C  0.32336431  0.70758131  0.61787420     0.04100
C1975       C  0.23846700  0.73134813  0.65010597     0.38700
C1976       C  0.38301487  0.72785713  0.62766841     0.38700
C1977       C  0.33694014  0.68521997  0.59682957     0.37200
C1978       C  0.28335350  0.78154939  0.67303674     0.37200
N1979       N  0.34914566  0.66781468  0.58025967    -0.37700
N1980       N  0.27096715  0.80297449  0.68587982    -0.37700
N1981       N  0.41232076  0.72690674  0.62335221    -0.37100
N1982       N  0.20905851  0.73272272  0.65387130    -0.37100
C1983       C  0.16476727  0.64948138  0.99984897    -0.03800
C1984       C  0.16626439  0.62781431  0.50742192    -0.00900
C1985       C  0.18639407  0.61855277  0.53076891     0.04100
C1986       C  0.21512914  0.63908008  0.53905554    -0.03800
C1987       C  0.22742278  0.66378291  0.51998299    -0.00900
C1988       C  0.19778696  0.66462244  0.00336914     0.04100
C1989       C  0.13527717  0.60860632  0.50025047     0.38700
C1990       C  0.25770709  0.68401571  0.52704987     0.38700
C1991       C  0.21019304  0.68843426  0.98291625     0.37200
C1992       C  0.17707473  0.58760774  0.54525933     0.37200
N1993       N  0.21945924  0.70698842  0.96582444    -0.37700
N1994       N  0.16785136  0.56193351  0.55468249    -0.37700
N1995       N  0.28157502  0.69997328  0.53382583    -0.37100
N1996       N  0.11052582  0.59334220  0.49450826    -0.37100
C1997       C  0.13467905  0.79775755  0.89539670    -0.03800
C1998       C  0.13539976  0.80173647  0.86647794    -0.00900
C1999       C  0.15397312  0.83017320  0.85543779     0.04100
C2000       C  0.18075123  0.84528278  0.87131531    -0.03800
C2001       C  0.17024838  0.84960192  0.89950667    -0.00900
C2002       C  0.14480037  0.82694416  0.91070821     0.04100
C2003       C  0.10902963  0.78473821  0.85009221     0.38700
C2004       C  0.17462414  0.88146958  0.91385132     0.38700
C2005       C  0.12136063  0.83919903  0.93188590     0.37200
C2006       C  0.13396869  0.85282718  0.83855628     0.37200
N2007       N  0.10136381  0.85010493  0.94722470    -0.37700
N2008       N  0.11568210  0.87009197  0.82624388    -0.37700
N2009       N  0.17238908  0.90622417  0.92667665    -0.37100
N2010       N  0.08756866  0.77173611  0.83698227    -0.37100
C2011       C  0.23537638  0.73730368  0.58095039    -0.03800
C2012       C  0.21284086  0.75120318  0.56055784    -0.00900
C2013       C  0.21793308  0.78588279  0.55250271     0.04100
C2014       C  0.25173807  0.80146726  0.55530142    -0.03800
C2015       C  0.27413414  0.78393736  0.57322918    -0.00900
C2016       C  0.25797210  0.76230872  0.59213175     0.04100
C2017       C  0.18398719  0.73301035  0.54840532     0.38700
C2018       C  0.30894466  0.79470611  0.57952430     0.38700
C2019       C  0.24084560  0.78377417  0.61228054     0.37200
C2020       C  0.18701231  0.80527301  0.55073925     0.37200
N2021       N  0.22557551  0.80064732  0.62744579    -0.37700
N2022       N  0.15299665  0.80988791  0.05366453    -0.37700
N2023       N  0.33700303  0.80220145  0.58523434    -0.37100
N2024       N  0.16058063  0.71956578  0.53801638    -0.37100
C2025       C  0.26835970  0.88995841  0.97120958    -0.03800
C2026       C  0.29753488  0.88107775  0.95480653    -0.00900
C2027       C  0.29975520  0.89132580  0.92689856     0.04100
C2028       C  0.26987491  0.90055776  0.91271458    -0.03800
C2029       C  0.24668934  0.91891867  0.92926901    -0.00900
C2030       C  0.24527774  0.91297713  0.95850057     0.04100
C2031       C  0.32690315  0.86322855  0.96523553     0.38700
C2032       C  0.23014630  0.94841687  0.91772230     0.38700
C2033       C  0.22230459  0.93291332  0.97537105     0.37200
C2034       C  0.33212602  0.90679013  0.91828955     0.37200
N2035       N  0.20396051  0.94986268  0.98804511    -0.37700
N2036       N  0.35808318  0.92048512  0.91343501    -0.37700
N2037       N  0.21675229  0.97227081  0.90917458    -0.37100
N2038       N  0.35211959  0.84998162  0.97122912    -0.37100
C2039       C  0.20185538  0.85383082  0.99397547    -0.03800
C2040       C  0.20877090  0.82657083  0.97565383    -0.00900
C2041       C  0.18304782  0.80233671  0.96978477     0.04100
C2042       C  0.15162935  0.80274510  0.98453479    -0.03800
C2043       C  0.14217597  0.83283311  0.99813446    -0.00900
C2044       C  0.17463297  0.86670088  0.50097375     0.04100
C2045       C  0.24308380  0.81939700  0.96596495     0.38700
C2046       C  0.11454658  0.84529570  0.50814941     0.38700
C2047       C  0.16525228  0.89817525  0.51425381     0.37200
C2048       C  0.18917748  0.77687269  0.94842108     0.37200
N2049       N  0.15552179  0.92316306  0.52397333    -0.37700
N2050       N  0.19393837  0.75718314  0.93097038    -0.37700
N2051       N  0.08717674  0.84856953  0.51724833    -0.37100
N2052       N  0.27017356  0.81149671  0.95868155    -0.37100
C2053       C  0.23902071  0.90489313  0.58270211    -0.03800
C2054       C  0.24284859  0.88573614  0.60735470    -0.00900
C2055       C  0.21470366  0.88103023  0.62581632     0.04100
C2056       C  0.18128536  0.88986501  0.61790948    -0.03800
C2057       C  0.17828986  0.91327103  0.59586197    -0.00900
C2058       C  0.20799634  0.92276870  0.57984797     0.04100
C2059       C  0.27442488  0.86823255  0.61300004     0.38700
C2060       C  0.14530477  0.92824863  0.59047688     0.38700
C2061       C  0.20773419  0.95156879  0.56126303     0.37200
C2062       C  0.21933548  0.86601224  0.65274546     0.37200
N2063       N  0.20813206  0.97521837  0.54697093    -0.37700
N2064       N  0.22155617  0.85412300  0.67451513    -0.37700
N2065       N  0.11887860  0.94038566  0.58640300    -0.37100
N2066       N  0.29907013  0.85377964  0.61872503    -0.37100
C2067       C  0.31938422  0.81285271  0.51922569    -0.03800
C2068       C  0.35584929  0.81684808  0.52120851    -0.00900
C2069       C  0.36721222  0.78403227  0.00498026     0.04100
C2070       C  0.35295897  0.75413704  0.99282180    -0.03800
C2071       C  0.32955037  0.75725019  0.49604869    -0.00900
C2072       C  0.30691308  0.78154959  0.50715909     0.04100
C2073       C  0.37031707  0.84552222  0.53646670     0.38700
C2074       C  0.31573276  0.72707361  0.48222228     0.38700
C2075       C  0.27080722  0.77348802  0.50387424     0.37200
C2076       C  0.40368748  0.79132341  0.00161997     0.37200
N2077       N  0.24250632  0.76511730  0.50021669    -0.37700
N2078       N  0.43279683  0.79717466  0.99874337    -0.37700
N2079       N  0.29471373  0.68718667  0.98149782    -0.37100
N2080       N  0.38179740  0.86824740  0.54892026    -0.37100
C2081       C  0.30040495  0.01161496  0.56100238    -0.03800
C2082       C  0.29831458  0.99902621  0.53353864    -0.00900
C2083       C  0.30181192  0.96395351  0.52798329     0.04100
C2084       C  0.30198602  0.93995152  0.54991924    -0.03800
C2085       C  0.30930254  0.95291875  0.57679910    -0.00900
C2086       C  0.30795930  0.98847340  0.58246065     0.04100
C2087       C  0.29365799  0.02235600  0.51048640     0.38700
C2088       C  0.32466599  0.93088471  0.59704429     0.38700
C2089       C  0.31325537  0.00093333  0.61048994     0.37200
C2090       C  0.31744084  0.94213421  0.00622157     0.37200
N2091       N  0.31744592  0.01080922  0.63291883    -0.37700
N2092       N  0.33189128  0.93639948  0.98574952    -0.37700
N2093       N  0.33918557  0.91476046  0.61313974    -0.37100
N2094       N  0.30874073  0.02971624  0.99480206    -0.37100
C2095       C  0.14193924  0.17994203  0.01550447    -0.03800
C2096       C  0.16937206  0.16117986  0.00319397    -0.00900
C2097       C  0.19685818  0.15667542  0.49893178     0.04100
C2098       C  0.18664671  0.14295039  0.52441466    -0.03800
C2099       C  0.15655962  0.15519875  0.53702295    -0.00900
C2100       C  0.14071367  0.18458933  0.52631672     0.04100
C2101       C  0.20037952  0.17745929  0.99274991     0.38700
C2102       C  0.14193555  0.13701012  0.56054237     0.38700
C2103       C  0.10642656  0.19254997  0.53591286     0.37200
C2104       C  0.19675118  0.10594065  0.99408115     0.37200
N2105       N  0.07870826  0.19706782  0.54381488    -0.37700
N2106       N  0.21503395  0.08917193  0.98111256    -0.37700
N2107       N  0.13011383  0.12238784  0.57922706    -0.37100
N2108       N  0.22781607  0.18705361  0.98706727    -0.37100
C2109       C  0.22983213  0.94782780  0.83235022    -0.03800
C2110       C  0.24689130  0.97465924  0.84633365    -0.00900
C2111       C  0.23329700  0.00738013  0.84581927     0.04100
C2112       C  0.20202067  0.01345046  0.83167083    -0.03800
C2113       C  0.18526668  0.98677969  0.81726923    -0.00900
C2114       C  0.19892172  0.95385004  0.81801145     0.04100
C2115       C  0.27683703  0.96839176  0.86345139     0.38700
C2116       C  0.15299241  0.99271731  0.80317568     0.38700
C2117       C  0.18004059  0.92597083  0.80526566     0.37200
C2118       C  0.25154706  0.03444289  0.86065381     0.37200
N2119       N  0.16462696  0.90423408  0.79454913    -0.37700
N2120       N  0.26621950  0.05533897  0.87307086    -0.37700
N2121       N  0.12718933  0.99743902  0.79199701    -0.37100
N2122       N  0.30028986  0.96430726  0.87775345    -0.37100
C2123       C  0.11097328  0.17087181  0.88383067    -0.03800
C2124       C  0.10113416  0.15606969  0.90945802    -0.00900
C2125       C  0.09480486  0.17673142  0.93303550     0.04100
C2126       C  0.09872858  0.21267449  0.93155575    -0.03800
C2127       C  0.10264091  0.22740134  0.90474947    -0.00900
C2128       C  0.10739643  0.20644270  0.88085068     0.04100
C2129       C  0.10003591  0.11926062  0.91208247     0.38700
C2130       C  0.10698787  0.26380869  0.90172095     0.38700
C2131       C  0.11287236  0.22188461  0.85383667     0.37200
C2132       C  0.08725063  0.16035506  0.95934381     0.37200
N2133       N  0.11692551  0.23419852  0.83222807    -0.37700
N2134       N  0.08120785  0.14617950  0.97988191    -0.37700
N2135       N  0.11108974  0.29263628  0.89785630    -0.37100
N2136       N  0.09930176  0.08991855  0.91421379    -0.37100
C2137       C  0.20279427  0.25427952  0.96533365    -0.03800
C2138       C  0.23066705  0.27213627  0.97865816    -0.00900
C2139       C  0.26282808  0.27614877  0.96474374     0.04100
C2140       C  0.27083595  0.25484842  0.94201687    -0.03800
C2141       C  0.24746306  0.22793449  0.93675974    -0.00900
C2142       C  0.21263854  0.23235240  0.94320685     0.04100
C2143       C  0.22821085  0.28501658  0.00671378     0.38700
C2144       C  0.25764201  0.19531894  0.92572787     0.38700
C2145       C  0.18902074  0.21384885  0.92557997     0.37200
C2146       C  0.28822385  0.30030644  0.97525392     0.37200
N2147       N  0.17344389  0.19717226  0.91023055    -0.37700
N2148       N  0.30797638  0.31993639  0.98395765    -0.37700
N2149       N  0.26480107  0.16812948  0.91879833    -0.37100
N2150       N  0.23311604  0.31548130  0.52401776    -0.37100
C2151       C  0.27903520  0.16570914  0.85757565    -0.03800
C2152       C  0.27031881  0.19942159  0.85123211    -0.00900
C2153       C  0.29549528  0.22525860  0.85250590     0.04100
C2154       C  0.32827225  0.21804829  0.86295800    -0.03800
C2155       C  0.33880356  0.18392285  0.86217175    -0.00900
C2156       C  0.31399182  0.15739119  0.85957562     0.04100
C2157       C  0.23497082  0.20753013  0.84452857     0.38700
C2158       C  0.37498087  0.17619908  0.86173826     0.38700
C2159       C  0.32433694  0.12217093  0.85922281     0.37200
C2160       C  0.28687150  0.25912774  0.84402563     0.37200
N2161       N  0.33299081  0.09415322  0.85863529    -0.37700
N2162       N  0.27780951  0.28554044  0.83692400    -0.37700
N2163       N  0.40347486  0.16820138  0.86061652    -0.37100
N2164       N  0.20616326  0.21311819  0.84100932    -0.37100
C2165       C  0.35606233  0.21623216  0.96235904    -0.03800
C2166       C  0.35537760  0.22807632  0.99043914    -0.00900
C2167       C  0.34260955  0.20688131  0.01262356     0.04100
C2168       C  0.32779631  0.17440368  0.00724535    -0.03800
C2169       C  0.33072153  0.16155254  0.98008934    -0.00900
C2170       C  0.34718992  0.18091617  0.95880420     0.04100
C2171       C  0.36824032  0.26151858  0.99762839     0.38700
C2172       C  0.31710198  0.12769431  0.97390150     0.38700
C2173       C  0.35650495  0.16262866  0.93391793     0.37200
C2174       C  0.35192190  0.23822988  0.54205754     0.37200
N2175       N  0.36383079  0.14517857  0.91555148    -0.37700
N2176       N  0.35152504  0.24924908  0.56437042    -0.37700
N2177       N  0.30603557  0.10089514  0.96869688    -0.37100
N2178       N  0.37862852  0.28730704  0.00596722    -0.37100
C2179       C  0.28767683  0.52779493  0.57303301    -0.03800
C2180       C  0.30635714  0.55466993  0.56031702    -0.00900
C2181       C  0.29356635  0.58830915  0.56153442     0.04100
C2182       C  0.26362958  0.59529942  0.57732124    -0.03800
C2183       C  0.24423711  0.56801171  0.58854771    -0.00900
C2184       C  0.25565097  0.53463650  0.58564072     0.04100
C2185       C  0.33891189  0.54797922  0.54678957     0.38700
C2186       C  0.21147067  0.57367933  0.60232426     0.38700
C2187       C  0.23311405  0.50712156  0.59473900     0.37200
C2188       C  0.30984441  0.61474561  0.54497998     0.37200
N2189       N  0.21405736  0.48600374  0.60184618    -0.37700
N2190       N  0.32292294  0.63484160  0.53069804    -0.37700
N2191       N  0.18496316  0.57700658  0.61299826    -0.37100
N2192       N  0.36509941  0.54282971  0.53617479    -0.37100
C2193       C  0.16327288  0.31842609  0.99312667    -0.03800
C2194       C  0.18702158  0.33393550  0.97430680    -0.00900
C2195       C  0.21148180  0.35869337  0.98388377     0.04100
C2196       C  0.20897831  0.37144875  0.01107355    -0.03800
C2197       C  0.17798131  0.37755204  0.53192060    -0.00900
C2198       C  0.15488889  0.35555386  0.51765246     0.04100
C2199       C  0.18542292  0.32444018  0.94546755     0.38700
C2200       C  0.16655647  0.39491737  0.55676471     0.38700
C2201       C  0.12095477  0.35093096  0.52968940     0.37200
C2202       C  0.23647022  0.37414355  0.96548107     0.37200
N2203       N  0.09394571  0.34943147  0.53993124    -0.37700
N2204       N  0.25603661  0.38842713  0.95141640    -0.37700
N2205       N  0.15637310  0.40980596  0.57571364    -0.37100
N2206       N  0.18193876  0.31570209  0.92274873    -0.37100
C2207       C  0.12615409  0.26774863  0.54010932    -0.03800
C2208       C  0.15783710  0.27294444  0.55372334    -0.00900
C2209       C  0.15951701  0.28811432  0.58022676     0.04100
C2210       C  0.13022360  0.28796894  0.59801548    -0.03800
C2211       C  0.09797899  0.28138751  0.58502493    -0.00900
C2212       C  0.09589098  0.27399977  0.55592064     0.04100
C2213       C  0.18921625  0.25913236  0.54270351     0.38700
C2214       C  0.06668252  0.28461895  0.60122352     0.38700
C2215       C  0.06248771  0.27220849  0.54270223     0.37200
C2216       C  0.19080206  0.30706006  0.58573799     0.37200
N2217       N  0.03543281  0.27113875  0.53272565    -0.37700
N2218       N  0.21624634  0.32286140  0.58605892    -0.37700
N2219       N  0.04163311  0.28753853  0.61403668    -0.37100
N2220       N  0.21477090  0.24702603  0.53583776    -0.37100
C2221       C  0.17032748  0.34140159  0.63817399    -0.03800
C2222       C  0.15728537  0.37436401  0.63537245    -0.00900
C2223       C  0.17985308  0.40291940  0.63686856     0.04100
C2224       C  0.21549868  0.39839697  0.64062148    -0.03800
C2225       C  0.22718643  0.36620159  0.64801443    -0.00900
C2226       C  0.20583714  0.33765562  0.64407832     0.04100
C2227       C  0.12121544  0.37864391  0.62901654     0.38700
C2228       C  0.26269781  0.36175997  0.65628988     0.38700
C2229       C  0.22215412  0.30476696  0.64325966     0.37200
C2230       C  0.16644716  0.43694240  0.63509195     0.37200
N2231       N  0.23750261  0.27986020  0.64223678    -0.37700
N2232       N  0.15482197  0.46382425  0.63414551    -0.37700
N2233       N  0.29098666  0.35805357  0.66273061    -0.37100
N2234       N  0.09268421  0.38210917  0.62298837    -0.37100
C2235       C  0.17807958  0.21814776  0.65320448    -0.03800
C2236       C  0.18031563  0.18520491  0.66495527    -0.00900
C2237       C  0.20699587  0.16315817  0.65590454     0.04100
C2238       C  0.23045028  0.17410424  0.63485702    -0.03800
C2239       C  0.22391237  0.20533953  0.62148065    -0.00900
C2240       C  0.19287140  0.22157269  0.62687453     0.04100
C2241       C  0.15367431  0.17272470  0.68361745     0.38700
C2242       C  0.24371450  0.21600482  0.59735144     0.38700
C2243       C  0.16838493  0.21743245  0.60474421     0.37200
C2244       C  0.21004029  0.12959249  0.66785120     0.37200
N2245       N  0.14787408  0.21122557  0.58807138    -0.37700
N2246       N  0.21248121  0.10274917  0.67740701    -0.37700
N2247       N  0.26024310  0.22343125  0.57819268    -0.37100
N2248       N  0.13271589  0.16237981  0.69872104    -0.37100
C2249       C  0.18932642  0.52781884  0.80409899    -0.03800
C2250       C  0.17548194  0.54438028  0.78090859    -0.00900
C2251       C  0.17421871  0.58022932  0.78030888     0.04100
C2252       C  0.18858797  0.59986674  0.80247271    -0.03800
C2253       C  0.19336686  0.58252078  0.82788115    -0.00900
C2254       C  0.19670055  0.54690881  0.82820378     0.04100
C2255       C  0.16227524  0.52448594  0.75764380     0.38700
C2256       C  0.18712254  0.59936494  0.85405946     0.38700
C2257       C  0.20930469  0.53044546  0.85302974     0.37200
C2258       C  0.15427035  0.59541786  0.75849171     0.37200
N2259       N  0.21973141  0.51741696  0.87274898    -0.37700
N2260       N  0.13703366  0.60642837  0.74126666    -0.37700
N2261       N  0.18051626  0.61035386  0.87572027    -0.37100
N2262       N  0.15174347  0.50871372  0.73909014    -0.37100
C2263       C  0.13490367  0.35660086  0.75464727    -0.03800
C2264       C  0.11431652  0.37028726  0.73332008    -0.00900
C2265       C  0.09762269  0.34833345  0.71376615     0.04100
C2266       C  0.10305236  0.31272071  0.71403918    -0.03800
C2267       C  0.11813285  0.29910705  0.73815358    -0.00900
C2268       C  0.13369100  0.32089603  0.75833610     0.04100
C2269       C  0.11257769  0.40683036  0.72994060     0.38700
C2270       C  0.11909906  0.26251341  0.74117128     0.38700
C2271       C  0.14817878  0.30694917  0.78328365     0.37200
C2272       C  0.07588156  0.36224599  0.69245360     0.37200
N2273       N  0.15935206  0.29683545  0.80381044    -0.37700
N2274       N  0.05748826  0.37332308  0.67608025    -0.37700
N2275       N  0.11924028  0.23320606  0.74342279    -0.37100
N2276       N  0.11124088  0.43601695  0.72710329    -0.37100
C2277       C  0.24901251  0.37042425  0.87488155    -0.03800
C2278       C  0.23617267  0.33759919  0.87867716    -0.00900
C2279       C  0.25540173  0.31335886  0.89313881     0.04100
C2280       C  0.28785260  0.32174017  0.90585906    -0.03800
C2281       C  0.29690823  0.35710662  0.90611855    -0.00900
C2282       C  0.27812174  0.38104388  0.89007528     0.04100
C2283       C  0.20292719  0.32847281  0.86636664     0.38700
C2284       C  0.32581917  0.36999672  0.92193318     0.38700
C2285       C  0.28955629  0.41631051  0.88825115     0.37200
C2286       C  0.24127200  0.27973093  0.89097119     0.37200
N2287       N  0.29865054  0.44447023  0.88681993    -0.37700
N2288       N  0.22615789  0.25490900  0.88641405    -0.37700
N2289       N  0.34862765  0.38327393  0.93316704    -0.37100
N2290       N  0.17618489  0.32142204  0.85732693    -0.37100
C2291       C  0.27294147  0.27814813  0.71356455    -0.03800
C2292       C  0.25286756  0.30727092  0.71560667    -0.00900
C2293       C  0.21831597  0.30706434  0.70702936     0.04100
C2294       C  0.20176279  0.27586053  0.69783930    -0.03800
C2295       C  0.22002420  0.24613290  0.70312077    -0.00900
C2296       C  0.25600204  0.24727480  0.70575036     0.04100
C2297       C  0.26583406  0.33717250  0.72971640     0.38700
C2298       C  0.20233744  0.21828571  0.71672137     0.38700
C2299       C  0.27389319  0.21565688  0.70182756     0.37200
C2300       C  0.20238081  0.34006976  0.70907354     0.37200
N2301       N  0.28673437  0.18965016  0.69827210    -0.37700
N2302       N  0.19246124  0.36764917  0.71057086    -0.37700
N2303       N  0.18991361  0.19613790  0.72923214    -0.37100
N2304       N  0.27217218  0.36171735  0.74180687    -0.37100
C2305       C  0.36579995  0.28557205  0.85257182    -0.03800
C2306       C  0.34915275  0.31294831  0.84016983    -0.00900
C2307       C  0.34494404  0.31433000  0.81104543     0.04100
C2308       C  0.36740288  0.29674088  0.79279365    -0.03800
C2309       C  0.39182413  0.27536835  0.80630218    -0.00900
C2310       C  0.38974878  0.26870203  0.83553529     0.04100
C2311       C  0.34794296  0.34477002  0.85481449     0.38700
C2312       C  0.41973082  0.26008765  0.79096807     0.38700
C2313       C  0.41592275  0.24868886  0.84868417     0.37200
C2314       C  0.31650344  0.33395264  0.80148344     0.37200
N2315       N  0.43818598  0.23376317  0.85848861    -0.37700
N2316       N  0.29342556  0.35084679  0.79624730    -0.37700
N2317       N  0.44239388  0.24686089  0.77992947    -0.37100
N2318       N  0.35012798  0.37165877  0.86446531    -0.37100
C2319       C  0.35463026  0.36298651  0.74787121    -0.03800
C2320       C  0.36423575  0.37908151  0.77321888    -0.00900
C2321       C  0.34480069  0.40727245  0.78265331     0.04100
C2322       C  0.31842526  0.41984327  0.76556355    -0.03800
C2323       C  0.32212168  0.41432638  0.73704856    -0.00900
C2324       C  0.34126473  0.38620460  0.72802854     0.04100
C2325       C  0.39416222  0.36866123  0.78853156     0.38700
C2326       C  0.30384520  0.43530452  0.71736999     0.38700
C2327       C  0.35160196  0.38643282  0.69940904     0.37200
C2328       C  0.35096442  0.42265342  0.80953851     0.37200
N2329       N  0.35843251  0.39172180  0.67645958    -0.37700
N2330       N  0.35584251  0.43565792  0.83079530    -0.37700
N2331       N  0.28922695  0.45184902  0.70160365    -0.37100
N2332       N  0.41814050  0.36111333  0.80116412    -0.37100
C2333       C  0.36948797  0.30090712  0.66910691    -0.03800
C2334       C  0.39157632  0.32835209  0.66078973    -0.00900
C2335       C  0.38526539  0.34688871  0.63576675     0.04100
C2336       C  0.35528648  0.34027287  0.61984979    -0.03800
C2337       C  0.33732931  0.30935198  0.62528026    -0.00900
C2338       C  0.34495733  0.28958983  0.64915402     0.04100
C2339       C  0.41892317  0.34047088  0.67872959     0.38700
C2340       C  0.30945085  0.29866122  0.60715955     0.38700
C2341       C  0.32739272  0.25722479  0.65243264     0.37200
C2342       C  0.40838966  0.37450955  0.62755300     0.37200
N2343       N  0.31320955  0.23113135  0.65238177    -0.37700
N2344       N  0.42695591  0.39646763  0.62102267    -0.37700
N2345       N  0.28734518  0.29072080  0.59233272    -0.37100
N2346       N  0.44109900  0.35237602  0.69170296    -0.37100
C2347       C  0.30094775  0.23025187  0.75790141    -0.03800
C2348       C  0.30913818  0.19519332  0.75877267    -0.00900
C2349       C  0.28410081  0.17030420  0.76723538     0.04100
C2350       C  0.25046208  0.17986366  0.77565901    -0.03800
C2351       C  0.24308173  0.21482778  0.77593682    -0.00900
C2352       C  0.26853530  0.23954869  0.76929150     0.04100
C2353       C  0.34305308  0.18401901  0.75068915     0.38700
C2354       C  0.20841105  0.22582961  0.78205267     0.38700
C2355       C  0.25981359  0.27442886  0.77494018     0.37200
C2356       C  0.29279806  0.13459010  0.76576520     0.37200
N2357       N  0.24848089  0.30055351  0.78054963    -0.37700
N2358       N  0.29982386  0.10613241  0.76439641    -0.37700
N2359       N  0.18023362  0.23336463  0.78620788    -0.37100
N2360       N  0.37017321  0.17432139  0.74509724    -0.37100
C2361       C  0.83636532  0.82307574  0.99999068    -0.03800
C2362       C  0.84893992  0.85680653  0.00393959    -0.00900
C2363       C  0.83603411  0.87626831  0.51637704     0.04100
C2364       C  0.80060146  0.87238905  0.51001847    -0.03800
C2365       C  0.78831651  0.84012738  0.50199282    -0.00900
C2366       C  0.80862417  0.81196466  0.50704778     0.04100
C2367       C  0.88546137  0.86310005  0.00705076     0.38700
C2368       C  0.75464011  0.83613419  0.48953153     0.38700
C2369       C  0.79465307  0.78314094  0.52163977     0.37200
C2370       C  0.84934119  0.90876252  0.52616481     0.37200
N2371       N  0.78338291  0.76104375  0.53481570    -0.37700
N2372       N  0.86007357  0.93472376  0.53398622    -0.37700
N2373       N  0.72822225  0.83519280  0.47844698    -0.37100
N2374       N  0.91448098  0.86902444  0.01020646    -0.37100
C2375       C  0.92215170  0.75128430  0.93347996    -0.03800
C2376       C  0.94890993  0.77283946  0.94360414    -0.00900
C2377       C  0.98263873  0.76080910  0.94673105     0.04100
C2378       C  0.99048938  0.72678353  0.94009022    -0.03800
C2379       C  0.96523733  0.70643306  0.92680903    -0.00900
C2380       C  0.93131077  0.71868679  0.92333156     0.04100
C2381       C  0.94258066  0.80750295  0.95182491     0.38700
C2382       C  0.97392026  0.67265361  0.91720374     0.38700
C2383       C  0.90695214  0.69800838  0.90787081     0.37200
C2384       C  0.00958395  0.78419437  0.95633760     0.37200
N2385       N  0.88939656  0.68003470  0.89484793    -0.37700
N2386       N  0.03057570  0.80331919  0.96387915    -0.37700
N2387       N  0.98079787  0.64572663  0.90940376    -0.37100
N2388       N  0.94056324  0.83545525  0.95898075    -0.37100
C2389       C  0.87159079  0.81121465  0.90415186    -0.03800
C2390       C  0.85870779  0.79620945  0.87920164    -0.00900
C2391       C  0.84495093  0.81631308  0.85731744     0.04100
C2392       C  0.84350516  0.85207744  0.85936820    -0.03800
C2393       C  0.85958296  0.86766448  0.88243123    -0.00900
C2394       C  0.87263934  0.84777954  0.90471709     0.04100
C2395       C  0.85586739  0.75982858  0.87634320     0.38700
C2396       C  0.86012991  0.90457803  0.88444604     0.38700
C2397       C  0.88322774  0.86626371  0.92932995     0.37200
C2398       C  0.83176268  0.80014463  0.83232306     0.37200
N2399       N  0.89041901  0.88365648  0.94791699    -0.37700
N2400       N  0.82128129  0.78795347  0.81207865    -0.37700
N2401       N  0.86065417  0.93398009  0.88610303    -0.37100
N2402       N  0.85220089  0.73113768  0.87184090    -0.37100
C2403       C  0.71271247  0.77204134  0.90944598    -0.03800
C2404       C  0.73220937  0.80283590  0.91033492    -0.00900
C2405       C  0.76529202  0.80405793  0.92255005     0.04100
C2406       C  0.78286151  0.77309649  0.92793409    -0.03800
C2407       C  0.76648166  0.74321797  0.91771750    -0.00900
C2408       C  0.73053437  0.74203255  0.91619303     0.04100
C2409       C  0.72250533  0.83205478  0.89444007     0.38700
C2410       C  0.78549975  0.71391118  0.90844921     0.38700
C2411       C  0.71338252  0.71035747  0.92378935     0.37200
C2412       C  0.77999281  0.83775226  0.92710836     0.37200
N2413       N  0.70130921  0.68447012  0.93045246    -0.37700
N2414       N  0.78992264  0.86550904  0.93008744    -0.37700
N2415       N  0.79991097  0.69012903  0.90077007    -0.37100
N2416       N  0.71972468  0.85606460  0.88101349    -0.37100
C2417       C  0.67049117  0.89827138  0.83949744    -0.03800
C2418       C  0.64470955  0.88140673  0.82403442    -0.00900
C2419       C  0.62487239  0.85510516  0.83694115     0.04100
C2420       C  0.63317309  0.84556335  0.86445966    -0.03800
C2421       C  0.64650410  0.87303062  0.88102621    -0.00900
C2422       C  0.66560451  0.89961191  0.86822825     0.04100
C2423       C  0.63714455  0.89368398  0.79645870     0.38700
C2424       C  0.63995580  0.87643261  0.91033188     0.38700
C2425       C  0.68265966  0.92601883  0.88458865     0.37200
C2426       C  0.59320076  0.84311102  0.82434694     0.37200
N2427       N  0.69636063  0.94699528  0.89762637    -0.37700
N2428       N  0.56757574  0.83465170  0.81398132    -0.37700
N2429       N  0.63683283  0.88234099  0.93370488    -0.37100
N2430       N  0.63104695  0.90401619  0.77455384    -0.37100
C2431       C  0.57136693  0.73952039  0.91153672    -0.03800
C2432       C  0.56556475  0.70779898  0.92493934    -0.00900
C2433       C  0.53184820  0.69304860  0.92635982     0.04100
C2434       C  0.50408722  0.70888388  0.91306248    -0.03800
C2435       C  0.51027848  0.74008216  0.89914368    -0.00900
C2436       C  0.54314965  0.75570066  0.89917601     0.04100
C2437       C  0.59407667  0.68925841  0.93624805     0.38700
C2438       C  0.48292618  0.75596093  0.88368117     0.38700
C2439       C  0.54773878  0.78795433  0.88496603     0.37200
C2440       C  0.52610669  0.66059692  0.93999854     0.37200
N2441       N  0.55011526  0.81342203  0.87305551    -0.37700
N2442       N  0.52157568  0.63458485  0.95076640    -0.37700
N2443       N  0.46138740  0.76769346  0.87048686    -0.37100
N2444       N  0.61598192  0.67285781  0.94494685    -0.37100
C2445       C  0.61449378  0.79349131  0.94989815    -0.03800
C2446       C  0.59651992  0.82390965  0.95603452    -0.00900
C2447       C  0.60491184  0.84411414  0.98002549     0.04100
C2448       C  0.63135472  0.83423524  0.99832040    -0.03800
C2449       C  0.64337749  0.80066265  0.99535979    -0.00900
C2450       C  0.63545386  0.78084159  0.97139924     0.04100
C2451       C  0.56967503  0.83553356  0.93787641     0.38700
C2452       C  0.67574535  0.78311511  0.52301221     0.38700
C2453       C  0.64964577  0.74736138  0.96922212     0.37200
C2454       C  0.58782974  0.87616275  0.98463883     0.37200
N2455       N  0.66134483  0.72058386  0.96956082    -0.37700
N2456       N  0.57415097  0.90175266  0.98815028    -0.37700
N2457       N  0.69303484  0.77262538  0.54039477    -0.37100
N2458       N  0.54741439  0.84668302  0.92507444    -0.37100
C2459       C  0.75816434  0.65625626  0.98903666    -0.03800
C2460       C  0.75020339  0.69044685  0.99284660    -0.00900
C2461       C  0.76919420  0.71615280  0.97930159     0.04100
C2462       C  0.80185775  0.70986440  0.96641530    -0.03800
C2463       C  0.81203589  0.66926396  0.46589018    -0.00900
C2464       C  0.78802745  0.64367017  0.47521883     0.04100
C2465       C  0.72338038  0.69975296  0.01266232     0.38700
C2466       C  0.84385369  0.65790938  0.45378991     0.38700
C2467       C  0.79393099  0.60800394  0.46949105     0.37200
C2468       C  0.75077330  0.74722529  0.97715058     0.37200
N2469       N  0.79860309  0.57951674  0.46495118    -0.37700
N2470       N  0.73158865  0.76917624  0.97592544    -0.37700
N2471       N  0.86903699  0.64613035  0.44572897    -0.37100
N2472       N  0.70234330  0.70634143  0.02876887    -0.37100
C2473       C  0.87023062  0.73860322  0.58452470    -0.03800
C2474       C  0.90092325  0.75274316  0.57211300    -0.00900
C2475       C  0.90287057  0.75889996  0.54279469     0.04100
C2476       C  0.87624472  0.74735209  0.52503265    -0.03800
C2477       C  0.85237345  0.72443543  0.53684094    -0.00900
C2478       C  0.84531041  0.72545227  0.56551711     0.04100
C2479       C  0.93047236  0.76210569  0.58882555     0.38700
C2480       C  0.84867996  0.69145700  0.52421247     0.38700
C2481       C  0.81225504  0.71172614  0.57385953     0.37200
C2482       C  0.93367150  0.77426499  0.53098304     0.37200
N2483       N  0.78551673  0.69973119  0.57878077    -0.37700
N2484       N  0.95929297  0.78576671  0.52261780    -0.37700
N2485       N  0.84831975  0.66368685  0.51630622    -0.37100
N2486       N  0.95499103  0.77043050  0.60079075    -0.37100
C2487       C  0.83516698  0.67876903  0.62645663    -0.03800
C2488       C  0.84837647  0.65959446  0.60373523    -0.00900
C2489       C  0.82702332  0.63440601  0.59090381     0.04100
C2490       C  0.79373365  0.62796397  0.60148116    -0.03800
C2491       C  0.78527779  0.63961866  0.62793449    -0.00900
C2492       C  0.80774441  0.66218226  0.64159433     0.04100
C2493       C  0.88324732  0.66506349  0.59379610     0.38700
C2494       C  0.75255500  0.62954169  0.64054282     0.38700
C2495       C  0.80612474  0.66085202  0.67152673     0.37200
C2496       C  0.83844229  0.61554652  0.56683533     0.37200
N2497       N  0.80395902  0.65933579  0.69547660    -0.37700
N2498       N  0.84727081  0.59974763  0.54786534    -0.37700
N2499       N  0.72621985  0.62142970  0.64998485    -0.37100
N2500       N  0.91121465  0.66885201  0.58583976    -0.37100
C2501       C  0.92808214  0.77667629  0.66493545    -0.03800
C2502       C  0.95666964  0.75534523  0.66190199    -0.00900
C2503       C  0.99041416  0.76894286  0.66328175     0.04100
C2504       C  0.99645324  0.80447029  0.66439596    -0.03800
C2505       C  0.96833642  0.82602143  0.66806062    -0.00900
C2506       C  0.93437960  0.81209831  0.66908359     0.04100
C2507       C  0.95251977  0.72057323  0.65249803     0.38700
C2508       C  0.97415912  0.86254936  0.66952200     0.38700
C2509       C  0.90634659  0.83485860  0.67426412     0.37200
C2510       C  0.01914877  0.74589070  0.66308501     0.37200
N2511       N  0.88560459  0.85478044  0.67893188    -0.37700
N2512       N  0.04163361  0.72704004  0.66313178    -0.37700
N2513       N  0.97862100  0.89173463  0.67053244    -0.37100
N2514       N  0.95219847  0.69331972  0.64343180    -0.37100
C2515       C  0.82006236  0.82005419  0.63240805    -0.03800
C2516       C  0.81139687  0.82241242  0.60423687    -0.00900
C2517       C  0.78148125  0.83921477  0.59629859     0.04100
C2518       C  0.76669623  0.86350352  0.61379179    -0.03800
C2519       C  0.78273294  0.86955103  0.63951626    -0.00900
C2520       C  0.80497388  0.84456205  0.65050414     0.04100
C2521       C  0.83565046  0.81344545  0.58325445     0.38700
C2522       C  0.78155591  0.90294884  0.65193256     0.38700
C2523       C  0.81180247  0.84504042  0.67994254     0.37200
C2524       C  0.76440995  0.83033355  0.57075592     0.37200
N2525       N  0.81635826  0.84652936  0.70366246    -0.37700
N2526       N  0.74728155  0.82335173  0.55201202    -0.37700
N2527       N  0.78296031  0.93034364  0.66078262    -0.37100
N2528       N  0.85617707  0.80967178  0.56628171    -0.37100
C2529       C  0.88549979  0.71725527  0.69979599    -0.03800
C2530       C  0.88573483  0.73057529  0.72718148    -0.00900
C2531       C  0.87606465  0.70954048  0.75041241     0.04100
C2532       C  0.86713010  0.67464606  0.74648727    -0.03800
C2533       C  0.87514866  0.66021364  0.72050268    -0.00900
C2534       C  0.88412844  0.68109039  0.69752001     0.04100
C2535       C  0.89599596  0.76577520  0.73141371     0.38700
C2536       C  0.87290064  0.62342594  0.71704364     0.38700
C2537       C  0.89159895  0.66403735  0.67170404     0.37200
C2538       C  0.87521051  0.72378041  0.77811092     0.37200
N2539       N  0.89783982  0.64731012  0.65260887    -0.37700
N2540       N  0.87531528  0.73487834  0.80039655    -0.37700
N2541       N  0.87090409  0.59418702  0.71424730    -0.37100
N2542       N  0.90444671  0.79383344  0.73502160    -0.37100
C2543       C  0.73700405  0.66611582  0.85690889    -0.03800
C2544       C  0.74354915  0.70018796  0.84965279    -0.00900
C2545       C  0.71984319  0.72554827  0.85641779     0.04100
C2546       C  0.68673871  0.71701130  0.86819066    -0.03800
C2547       C  0.67834056  0.68174245  0.87070936    -0.00900
C2548       C  0.70410899  0.65692302  0.86728784     0.04100
C2549       C  0.77437849  0.70928105  0.83368023     0.38700
C2550       C  0.64373563  0.67015682  0.87734916     0.38700
C2551       C  0.69701820  0.62197847  0.87548155     0.37200
C2552       C  0.73297354  0.75985870  0.85275041     0.37200
N2553       N  0.69120636  0.59428244  0.88242796    -0.37700
N2554       N  0.74844683  0.78507940  0.85006735    -0.37700
N2555       N  0.61615741  0.65961362  0.88138593    -0.37100
N2556       N  0.79860306  0.71598371  0.82060215    -0.37100
C2557       C  0.71366298  0.76590939  0.68335818    -0.03800
C2558       C  0.72162870  0.76658844  0.65494525    -0.00900
C2559       C  0.75617509  0.76565683  0.64619262     0.04100
C2560       C  0.78327914  0.76679185  0.66575527    -0.03800
C2561       C  0.77522000  0.76804148  0.69405276    -0.00900
C2562       C  0.74082284  0.76618302  0.70274639     0.04100
C2563       C  0.69465872  0.76837558  0.63431607     0.38700
C2564       C  0.80211038  0.77098583  0.71477959     0.38700
C2565       C  0.73491756  0.76109791  0.73176821     0.37200
C2566       C  0.76253301  0.76278514  0.61691254     0.37200
N2567       N  0.73510708  0.75719691  0.75541515    -0.37700
N2568       N  0.76396519  0.76167177  0.59301115    -0.37700
N2569       N  0.82179213  0.77420116  0.73256672    -0.37100
N2570       N  0.67490590  0.77086587  0.61657339    -0.37100
C2571       C  0.63241929  0.74661219  0.77162553    -0.03800
C2572       C  0.59899272  0.75088777  0.78325929    -0.00900
C2573       C  0.59468074  0.75898183  0.81215913     0.04100
C2574       C  0.62259732  0.77294471  0.82786129    -0.03800
C2575       C  0.65483397  0.77205232  0.81481296    -0.00900
C2576       C  0.66008364  0.75300344  0.79014382     0.04100
C2577       C  0.56881648  0.74449082  0.76638899     0.38700
C2578       C  0.67939427  0.79776967  0.82287539     0.38700
C2579       C  0.68793314  0.72958039  0.79084121     0.37200
C2580       C  0.56155895  0.75252642  0.82492697     0.37200
N2581       N  0.70957267  0.70983060  0.79237483    -0.37700
N2582       N  0.53452737  0.74587342  0.83371765    -0.37700
N2583       N  0.69581758  0.82104629  0.82982334    -0.37100
N2584       N  0.54403846  0.73915787  0.75373769    -0.37100
C2585       C  0.67141420  0.68506604  0.73573371    -0.03800
C2586       C  0.70029664  0.66922257  0.72221426    -0.00900
C2587       C  0.71218473  0.63795613  0.73173270     0.04100
C2588       C  0.70436167  0.62840085  0.75864462    -0.03800
C2589       C  0.67476744  0.64091468  0.77144516    -0.00900
C2590       C  0.65607924  0.66672237  0.75827474     0.04100
C2591       C  0.72081146  0.68423851  0.70022074     0.38700
C2592       C  0.66372788  0.62704119  0.79789873     0.38700
C2593       C  0.62070421  0.67139923  0.76663341     0.37200
C2594       C  0.73721675  0.61807834  0.71640235     0.37200
N2595       N  0.59211973  0.67278746  0.77331354    -0.37700
N2596       N  0.75687133  0.60110046  0.70506481    -0.37700
N2597       N  0.65460911  0.61578296  0.81891277    -0.37100
N2598       N  0.73749299  0.69406847  0.68187335    -0.37100
C2599       C  0.57009282  0.76696874  0.68940324    -0.03800
C2600       C  0.54124909  0.74446328  0.69019519    -0.00900
C2601       C  0.50778451  0.75753040  0.69208218     0.04100
C2602       C  0.50287953  0.79289590  0.69436644    -0.03800
C2603       C  0.53080097  0.81543367  0.69079941    -0.00900
C2604       C  0.56418961  0.80251949  0.68748805     0.04100
C2605       C  0.54490060  0.70797393  0.69191243     0.38700
C2606       C  0.52539223  0.85185883  0.69184675     0.38700
C2607       C  0.59212053  0.82647366  0.68236712     0.37200
C2608       C  0.47824185  0.73427011  0.69287892     0.37200
N2609       N  0.61290905  0.84721779  0.67809581    -0.37700
N2610       N  0.45504948  0.71535929  0.69327644    -0.37700
N2611       N  0.52129217  0.88094183  0.69274838    -0.37100
N2612       N  0.54487930  0.67861938  0.69354171    -0.37100
C2613       C  0.61415059  0.70659247  0.65805975    -0.03800
C2614       C  0.61354146  0.71897524  0.63051820    -0.00900
C2615       C  0.62478616  0.69822066  0.60785287     0.04100
C2616       C  0.63532082  0.66424029  0.61246495    -0.03800
C2617       C  0.62896060  0.65022574  0.63908218    -0.00900
C2618       C  0.61892615  0.67111038  0.66155144     0.04100
C2619       C  0.60262434  0.75346901  0.62571422     0.38700
C2620       C  0.63337518  0.61407038  0.64381305     0.38700
C2621       C  0.61490587  0.65559801  0.68864213     0.37200
C2622       C  0.62713187  0.71249727  0.58022060     0.37200
N2623       N  0.61087625  0.64139781  0.70944534    -0.37700
N2624       N  0.62883470  0.72385677  0.55809052    -0.37700
N2625       N  0.63676441  0.58533463  0.64795707    -0.37100
N2626       N  0.59391158  0.78104208  0.62176071    -0.37100
C2627       C  0.67850940  0.81884016  0.71587798    -0.03800
C2628       C  0.68599258  0.82157515  0.74403407    -0.00900
C2629       C  0.71656170  0.83774873  0.75226687     0.04100
C2630       C  0.73118852  0.86354657  0.73569486    -0.03800
C2631       C  0.71625210  0.86904848  0.70939073    -0.00900
C2632       C  0.69425615  0.84330073  0.69788132     0.04100
C2633       C  0.65699883  0.82282608  0.76230585     0.38700
C2634       C  0.71878152  0.90206528  0.69644511     0.38700
C2635       C  0.68650985  0.84377213  0.66857860     0.37200
C2636       C  0.73427493  0.82640012  0.77672687     0.37200
N2637       N  0.68039534  0.84479784  0.64509470    -0.37700
N2638       N  0.75128513  0.81715887  0.79475759    -0.37700
N2639       N  0.71842365  0.92899816  0.68680173    -0.37100
N2640       N  0.63175405  0.82477889  0.77487011    -0.37100
C2641       C  0.47802345  0.30357148  0.92840067    -0.03800
C2642       C  0.45400134  0.32490305  0.94135016    -0.00900
C2643       C  0.41965006  0.31320647  0.94585159     0.04100
C2644       C  0.40874314  0.28018933  0.93718491    -0.03800
C2645       C  0.43411012  0.25782592  0.92711615    -0.00900
C2646       C  0.46814360  0.26950706  0.92236355     0.04100
C2647       C  0.46425443  0.35920248  0.94933522     0.38700
C2648       C  0.42620329  0.22241712  0.92144142     0.38700
C2649       C  0.49321140  0.24576351  0.91147387     0.37200
C2650       C  0.39666521  0.33425461  0.96174121     0.37200
N2651       N  0.51277222  0.22665629  0.90262194    -0.37700
N2652       N  0.37988919  0.35097279  0.97602213    -0.37700
N2653       N  0.42244229  0.19372923  0.91684124    -0.37100
N2654       N  0.47230844  0.38661817  0.95573147    -0.37100
C2655       C  0.69197617  0.18749303  0.86209985    -0.03800
C2656       C  0.69402610  0.22319668  0.86695892    -0.00900
C2657       C  0.66908150  0.23928714  0.88237581     0.04100
C2658       C  0.63584613  0.22571879  0.88215287    -0.03800
C2659       C  0.63114831  0.19081507  0.87680406    -0.00900
C2660       C  0.66015293  0.17090756  0.86944627     0.04100
C2661       C  0.71731136  0.24663244  0.85356281     0.38700
C2662       C  0.59664756  0.17616237  0.87639406     0.38700
C2663       C  0.65424256  0.13485222  0.86568817     0.37200
C2664       C  0.67709979  0.27151912  0.89616377     0.37200
N2665       N  0.64557735  0.10672673  0.86298106    -0.37700
N2666       N  0.68378751  0.29691311  0.90723003    -0.37700
N2667       N  0.56917251  0.16428899  0.87552414    -0.37100
N2668       N  0.73374913  0.26956739  0.84604910    -0.37100
C2669       C  0.77374347  0.02293896  0.79931447    -0.03800
C2670       C  0.73934685  0.03369503  0.80114297    -0.00900
C2671       C  0.73173781  0.06863467  0.80140104     0.04100
C2672       C  0.75839796  0.09358617  0.79815259    -0.03800
C2673       C  0.79206351  0.08210630  0.79236168    -0.00900
C2674       C  0.80001452  0.04714551  0.79400319     0.04100
C2675       C  0.71135584  0.00852283  0.80239408     0.38700
C2676       C  0.81780717  0.10560408  0.78181149     0.38700
C2677       C  0.83531355  0.03625279  0.79109316     0.37200
C2678       C  0.69620837  0.07753295  0.80587061     0.37200
N2679       N  0.86349811  0.02750330  0.78897322    -0.37700
N2680       N  0.66712967  0.08173457  0.80938212    -0.37700
N2681       N  0.83829018  0.12320037  0.77155628    -0.37100
N2682       N  0.68909692  0.98853482  0.80319960    -0.37100
C2683       C  0.47922295  0.22538998  0.69685201    -0.03800
C2684       C  0.44900785  0.20724498  0.68902300    -0.00900
C2685       C  0.41605876  0.22088221  0.69456340     0.04100
C2686       C  0.41303959  0.25221681  0.70882146    -0.03800
C2687       C  0.44321191  0.26954683  0.71757901    -0.00900
C2688       C  0.47592232  0.25698463  0.71088419     0.04100
C2689       C  0.45175626  0.17381404  0.67650006     0.38700
C2690       C  0.44098953  0.30003284  0.73451452     0.38700
C2691       C  0.50600905  0.27778273  0.71787710     0.37200
C2692       C  0.38550399  0.20190933  0.68630409     0.37200
N2693       N  0.52928713  0.29515833  0.72368488    -0.37700
N2694       N  0.36173374  0.18568452  0.67973563    -0.37700
N2695       N  0.44016619  0.32416948  0.74829244    -0.37100
N2696       N  0.45400365  0.14696103  0.66679816    -0.37100
C2697       C  0.70068737  0.14205972  0.77123907    -0.03800
C2698       C  0.71426092  0.14037836  0.74378493    -0.00900
C2699       C  0.69206868  0.14196362  0.72022446     0.04100
C2700       C  0.65593691  0.14372100  0.72347305    -0.03800
C2701       C  0.64226250  0.13998544  0.75028736    -0.00900
C2702       C  0.66398867  0.14320493  0.77370939     0.04100
C2703       C  0.75108083  0.14286784  0.73935237     0.38700
C2704       C  0.60505856  0.13772099  0.75402177     0.38700
C2705       C  0.64697404  0.15404665  0.79872024     0.37200
C2706       C  0.70633819  0.14216605  0.69242335     0.37200
N2707       N  0.62939626  0.16486262  0.81585015    -0.37700
N2708       N  0.71767846  0.14159909  0.67018202    -0.37700
N2709       N  0.57551962  0.13583576  0.75716033    -0.37100
N2710       N  0.78032055  0.14569633  0.73509062    -0.37100
C2711       C  0.73708293  0.30657375  0.79064786    -0.03800
C2712       C  0.71133670  0.28155016  0.78749668    -0.00900
C2713       C  0.72055340  0.24775668  0.78395733     0.04100
C2714       C  0.75282927  0.23627326  0.79344123    -0.03800
C2715       C  0.77913678  0.26123708  0.79540142    -0.00900
C2716       C  0.77052290  0.29579044  0.79744697     0.04100
C2717       C  0.67819222  0.28640841  0.80021239     0.38700
C2718       C  0.81307275  0.25349422  0.78526135     0.38700
C2719       C  0.79443454  0.31943616  0.81034201     0.37200
C2720       C  0.69942146  0.22808319  0.76501103     0.37200
N2721       N  0.81310839  0.33783029  0.82187758    -0.37700
N2722       N  0.68167239  0.21455636  0.74905945    -0.37700
N2723       N  0.83990947  0.24779289  0.77602489    -0.37100
N2724       N  0.65279484  0.28848914  0.81267548    -0.37100
C2725       C  0.65340346  0.35726495  0.73895664    -0.03800
C2726       C  0.64286591  0.36003654  0.71116106    -0.00900
C2727       C  0.62642623  0.33183012  0.69822600     0.04100
C2728       C  0.61930793  0.30208968  0.71394740    -0.03800
C2729       C  0.62070635  0.30414552  0.74302706    -0.00900
C2730       C  0.63434590  0.33360553  0.75531288     0.04100
C2731       C  0.64088208  0.39348079  0.69894660     0.38700
C2732       C  0.60767837  0.27662350  0.76052096     0.38700
C2733       C  0.61953466  0.34313907  0.78165707     0.37200
C2734       C  0.61475190  0.33432389  0.66977607     0.37200
N2735       N  0.60560761  0.34829836  0.80246433    -0.37700
N2736       N  0.60528094  0.33668888  0.64711723    -0.37700
N2737       N  0.59725428  0.25464052  0.77434403    -0.37100
N2738       N  0.63798130  0.42042245  0.68969872    -0.37100
C2739       C  0.75777433  0.44466886  0.78584397    -0.03800
C2740       C  0.79347393  0.45158960  0.77945561    -0.00900
C2741       C  0.81090831  0.48053902  0.79051317     0.04100
C2742       C  0.79330027  0.50426611  0.80659556    -0.03800
C2743       C  0.75845593  0.49788799  0.81318984    -0.00900
C2744       C  0.74028826  0.47038207  0.80077497     0.04100
C2745       C  0.81183159  0.43442051  0.75756974     0.38700
C2746       C  0.73994935  0.52212581  0.83019863     0.38700
C2747       C  0.70376133  0.47490868  0.79696206     0.37200
C2748       C  0.84697928  0.48738712  0.78392215     0.37200
N2749       N  0.67534113  0.48210202  0.79360212    -0.37700
N2750       N  0.87565181  0.49285875  0.77866530    -0.37700
N2751       N  0.72500989  0.54116378  0.84383778    -0.37100
N2752       N  0.82760166  0.42387583  0.73908812    -0.37100
C2753       C  0.69437688  0.40341713  0.82016813    -0.03800
C2754       C  0.65801650  0.40724116  0.82058907    -0.00900
C2755       C  0.63794513  0.39799998  0.84432402     0.04100
C2756       C  0.65306748  0.38202493  0.86754523    -0.03800
C2757       C  0.68967348  0.38359124  0.86900696    -0.00900
C2758       C  0.71001047  0.39434763  0.84555161     0.04100
C2759       C  0.64050001  0.41780030  0.79554167     0.38700
C2760       C  0.70671860  0.37417045  0.89442324     0.38700
C2761       C  0.74718640  0.39520314  0.84717890     0.37200
C2762       C  0.60124972  0.40441208  0.84454951     0.37200
N2763       N  0.77690687  0.39671943  0.84860205    -0.37700
N2764       N  0.57198682  0.40950909  0.84470198    -0.37700
N2765       N  0.72081072  0.36739109  0.91475379    -0.37100
N2766       N  0.62622746  0.42599335  0.77563430    -0.37100
C2767       C  0.99353253  0.30286450  0.94993017    -0.03800
C2768       C  0.99570731  0.27038414  0.96291360    -0.00900
C2769       C  0.02796163  0.25552476  0.96790194     0.04100
C2770       C  0.05876496  0.27332378  0.96152849    -0.03800
C2771       C  0.05669819  0.30707457  0.95137940    -0.00900
C2772       C  0.02445534  0.32126767  0.94470640     0.04100
C2773       C  0.96507389  0.25246137  0.97285946     0.38700
C2774       C  0.08741766  0.32826418  0.94891371     0.38700
C2775       C  0.02317866  0.35591013  0.93445913     0.37200
C2776       C  0.02916936  0.22294246  0.98195763     0.37200
N2777       N  0.02232782  0.38366479  0.92652434    -0.37700
N2778       N  0.03748111  0.20757110  0.48497618    -0.37700
N2779       N  0.11106053  0.34638140  0.94667425    -0.37100
N2780       N  0.95160779  0.25303361  0.49113727    -0.37100
C2781       C  0.85394188  0.26576754  0.85498431    -0.03800
C2782       C  0.81838974  0.26338631  0.85998015    -0.00900
C2783       C  0.80024497  0.23297977  0.85419907     0.04100
C2784       C  0.81143087  0.20929702  0.83443602    -0.03800
C2785       C  0.84762874  0.21113809  0.82872725    -0.00900
C2786       C  0.86887451  0.23821658  0.84030694     0.04100
C2787       C  0.80026401  0.29132047  0.87275323     0.38700
C2788       C  0.86411338  0.18557720  0.81212923     0.38700
C2789       C  0.90587001  0.23829714  0.83644507     0.37200
C2790       C  0.77791726  0.22086907  0.87542797     0.37200
N2791       N  0.93545650  0.23838279  0.83345736    -0.37700
N2792       N  0.75996388  0.21145639  0.89287395    -0.37700
N2793       N  0.88037424  0.16654309  0.79957729    -0.37100
N2794       N  0.78591747  0.31449236  0.88168985    -0.37100
C2795       C  0.75202060  0.13785895  0.88236877    -0.03800
C2796       C  0.72732632  0.11588886  0.89533796    -0.00900
C2797       C  0.72671945  0.11249704  0.92503373     0.04100
C2798       C  0.75321949  0.12796486  0.94074001    -0.03800
C2799       C  0.78440901  0.13237044  0.92562140    -0.00900
C2800       C  0.78357401  0.14088711  0.89712038     0.04100
C2801       C  0.71399881  0.08787147  0.87890776     0.38700
C2802       C  0.81641933  0.12076149  0.93734202     0.38700
C2803       C  0.81572848  0.15067451  0.88391529     0.37200
C2804       C  0.70762758  0.08472564  0.93786160     0.37200
N2805       N  0.84250748  0.15760859  0.87472646    -0.37700
N2806       N  0.69302032  0.06197209  0.94800032    -0.37700
N2807       N  0.84214575  0.11045829  0.94562017    -0.37100
N2808       N  0.70467473  0.06390035  0.86689649    -0.37100
C2809       C  0.79475426  0.18458652  0.96728637    -0.03800
C2810       C  0.77597633  0.20961105  0.95319384    -0.00900
C2811       C  0.79288208  0.23936881  0.94437666     0.04100
C2812       C  0.82924689  0.24059396  0.94429041    -0.03800
C2813       C  0.84753853  0.21183094  0.95240094    -0.00900
C2814       C  0.83089767  0.18730478  0.96842163     0.04100
C2815       C  0.74584152  0.20059084  0.44667074     0.38700
C2816       C  0.88259540  0.20630975  0.94308211     0.38700
C2817       C  0.85170394  0.16711836  0.98666676     0.37200
C2818       C  0.77245314  0.26850672  0.93708025     0.37200
N2819       N  0.87081034  0.15328690  0.00090214    -0.37700
N2820       N  0.75562008  0.29173787  0.93229705    -0.37700
N2821       N  0.91004012  0.20112991  0.93484010    -0.37100
N2822       N  0.71806652  0.19557885  0.43878372    -0.37100
C2823       C  0.70537829  0.01341992  0.53830247    -0.03800
C2824       C  0.73776575  0.02246323  0.52682995    -0.00900
C2825       C  0.74465101  0.05595928  0.51882864     0.04100
C2826       C  0.72243126  0.08201909  0.52697358    -0.03800
C2827       C  0.68992240  0.07343852  0.53853985    -0.00900
C2828       C  0.68109267  0.03888065  0.54374782     0.04100
C2829       C  0.76456857  0.99740510  0.52327727     0.38700
C2830       C  0.66485561  0.09975045  0.54308374     0.38700
C2831       C  0.64676602  0.02941416  0.55311398     0.37200
C2832       C  0.76625594  0.06234853  0.99228221     0.37200
N2833       N  0.61919932  0.02183681  0.56027133    -0.37700
N2834       N  0.78584142  0.06511903  0.97425678    -0.37700
N2835       N  0.64473453  0.12074973  0.54642981    -0.37100
N2836       N  0.76888274  0.97467419  0.99909297    -0.37100
C2837       C  0.67410257  0.18585157  0.49583038    -0.03800
C2838       C  0.65094396  0.17940738  0.97485247    -0.00900
C2839       C  0.62456848  0.20183961  0.96718949     0.04100
C2840       C  0.62199621  0.23368622  0.98028000    -0.03800
C2841       C  0.63581507  0.23437743  0.50178988    -0.00900
C2842       C  0.65907282  0.21048500  0.51320598     0.04100
C2843       C  0.65159366  0.14758208  0.96002947     0.38700
C2844       C  0.61780259  0.25834636  0.51888086     0.38700
C2845       C  0.66756726  0.20989518  0.54213224     0.37200
C2846       C  0.59684771  0.18993974  0.94932579     0.37200
N2847       N  0.67618935  0.20705273  0.56485947    -0.37700
N2848       N  0.57376421  0.17971611  0.93646275    -0.37700
N2849       N  0.60181722  0.27738616  0.53165226    -0.37100
N2850       N  0.64788189  0.12271633  0.94744256    -0.37100
C2851       C  0.06023015  0.25147994  0.67522255    -0.03800
C2852       C  0.05112041  0.22073434  0.66051876    -0.00900
C2853       C  0.01653333  0.21319235  0.65327687     0.04100
C2854       C  0.99025658  0.23422345  0.66248312    -0.03800
C2855       C  0.99808039  0.26149780  0.68031316    -0.00900
C2856       C  0.03228248  0.26842334  0.68844915     0.04100
C2857       C  0.07579513  0.19475643  0.65401689     0.38700
C2858       C  0.97071194  0.28362850  0.68960696     0.38700
C2859       C  0.03574938  0.28764893  0.71389910     0.37200
C2860       C  0.00799937  0.18432957  0.63551998     0.37200
N2861       N  0.03509649  0.30208912  0.73490773    -0.37700
N2862       N  0.00132628  0.16147604  0.62118053    -0.37700
N2863       N  0.94908528  0.30165876  0.69651974    -0.37100
N2864       N  0.09373979  0.17307793  0.64718745    -0.37100
C2865       C  0.82259150  0.28210150  0.71422918    -0.03800
C2866       C  0.78660352  0.27800980  0.71484833    -0.00900
C2867       C  0.76574988  0.30184392  0.72859231     0.04100
C2868       C  0.78057999  0.32964761  0.74390273    -0.03800
C2869       C  0.81708592  0.33066867  0.74642109    -0.00900
C2870       C  0.83771297  0.30644564  0.73233320     0.04100
C2871       C  0.77097514  0.24720711  0.70363064     0.38700
C2872       C  0.83413560  0.35542853  0.76414839     0.38700
C2873       C  0.87427316  0.30528933  0.73809869     0.37200
C2874       C  0.72879165  0.29797067  0.72543348     0.37200
N2875       N  0.90312180  0.30420596  0.74386909    -0.37700
N2876       N  0.69952480  0.29388145  0.72219112    -0.37700
N2877       N  0.84938591  0.37388867  0.77853060    -0.37100
N2878       N  0.75782228  0.22227394  0.69602915    -0.37100
C2879       C  0.82209657  0.16284590  0.59718396    -0.03800
C2880       C  0.83560565  0.14187309  0.57608633    -0.00900
C2881       C  0.81313615  0.12338461  0.55817676     0.04100
C2882       C  0.77724674  0.12877275  0.55879428    -0.03800
C2883       C  0.76382302  0.14495980  0.58249328    -0.00900
C2884       C  0.78601489  0.16201799  0.60150094     0.04100
C2885       C  0.87256263  0.13958984  0.57245651     0.38700
C2886       C  0.72697839  0.14473254  0.58694413     0.38700
C2887       C  0.77136321  0.18104087  0.62413786     0.37200
C2888       C  0.82690489  0.09739649  0.54029448     0.37200
N2889       N  0.75969868  0.19636704  0.64224032    -0.37700
N2890       N  0.83939101  0.07603920  0.52733021    -0.37700
N2891       N  0.69768118  0.14397205  0.59134180    -0.37100
N2892       N  0.90204422  0.13788228  0.56932317    -0.37100
C2893       C  0.72920491  0.38116410  0.64143571    -0.03800
C2894       C  0.72366421  0.35434008  0.66045920    -0.00900
C2895       C  0.73229002  0.36008972  0.68821680     0.04100
C2896       C  0.71657863  0.38750364  0.70090173    -0.03800
C2897       C  0.71882906  0.41751066  0.68370671    -0.00900
C2898       C  0.72779794  0.41431589  0.65420811     0.04100
C2899       C  0.70153840  0.32562186  0.65499319     0.38700
C2900       C  0.71554469  0.45058304  0.69648307     0.38700
C2901       C  0.73604697  0.44415387  0.63785490     0.37200
C2902       C  0.76885390  0.36447672  0.69188301     0.37200
N2903       N  0.74296951  0.46802118  0.62478875    -0.37700
N2904       N  0.79746610  0.37176877  0.69512667    -0.37700
N2905       N  0.71312157  0.47705280  0.70683188    -0.37100
N2906       N  0.68317784  0.30223890  0.65370192    -0.37100
C2907       C  0.74307622  0.22850554  0.52057017    -0.03800
C2908       C  0.76999008  0.24179929  0.53839009    -0.00900
C2909       C  0.76664596  0.27361781  0.55186885     0.04100
C2910       C  0.73717462  0.29309910  0.54859196    -0.03800
C2911       C  0.71405188  0.28333805  0.52751861    -0.00900
C2912       C  0.72024756  0.25398379  0.51119975     0.04100
C2913       C  0.80421784  0.22800509  0.54005859     0.38700
C2914       C  0.68516898  0.30477360  0.52128250     0.38700
C2915       C  0.70844513  0.25475598  0.48282767     0.37200
C2916       C  0.79352407  0.28565883  0.57015833     0.37200
N2917       N  0.69388027  0.26002510  0.96397036    -0.37700
N2918       N  0.81497469  0.29429052  0.58514630    -0.37700
N2919       N  0.66254837  0.32247989  0.51625449    -0.37100
N2920       N  0.83241728  0.21914592  0.54183002    -0.37100
C2921       C  0.80091303  0.36704134  0.60670730    -0.03800
C2922       C  0.82921872  0.37387481  0.58829674     0.07100
C2923       C  0.86048568  0.35627596  0.59198571     0.04100
C2924       C  0.86726971  0.34228129  0.61812707    -0.03800
C2925       C  0.84473926  0.35105558  0.63939919    -0.00900
C2926       C  0.80972809  0.35227182  0.63247172     0.04100
C2927       C  0.82818571  0.40049423  0.56791170     0.38700
C2928       C  0.85694548  0.35159037  0.66763443     0.38700
C2929       C  0.78926336  0.32451123  0.64334651     0.37200
C2930       C  0.88494975  0.35265875  0.56953631     0.37200
N2931       N  0.77455317  0.30128403  0.65252360    -0.37700
N2932       N  0.90444423  0.34967419  0.55149359    -0.37700
N2933       N  0.86876126  0.35348335  0.68960545    -0.37100
N2934       N  0.83053166  0.42315931  0.55275512    -0.37100
C2935       C  0.67645384  0.49539173  0.55303857    -0.03800
C2936       C  0.67117209  0.48004425  0.57903939    -0.00900
C2937       C  0.67574712  0.44487085  0.58224683     0.04100
C2938       C  0.68820038  0.42490196  0.55959891    -0.03800
C2939       C  0.68416830  0.43901740  0.53273413    -0.00900
C2940       C  0.67932811  0.47446139  0.52942203     0.04100
C2941       C  0.66091442  0.50065187  0.60273407     0.38700
C2942       C  0.67909284  0.41706240  0.50900982     0.38700
C2943       C  0.67795869  0.48931210  0.50193192     0.37200
C2944       C  0.66442749  0.43043370  0.60837477     0.37200
N2945       N  0.70000512  0.50999228  0.98239889    -0.37700
N2946       N  0.65391423  0.42025861  0.62935698    -0.37700
N2947       N  0.67283821  0.40093172  0.48949859    -0.37100
N2948       N  0.65274916  0.51675642  0.62171893    -0.37100
C2949       C  0.67577593  0.30526351  0.58733085    -0.03800
C2950       C  0.64010603  0.31161723  0.58436799    -0.00900
C2951       C  0.61503508  0.28739746  0.59362683     0.04100
C2952       C  0.62513827  0.25659763  0.60603804    -0.03800
C2953       C  0.66051992  0.25058016  0.60939163    -0.00900
C2954       C  0.68548593  0.27394840  0.59939924     0.04100
C2955       C  0.62880570  0.34316359  0.57210603     0.38700
C2956       C  0.67175493  0.22156287  0.62562207     0.38700
C2957       C  0.72094920  0.26682787  0.60576012     0.37200
C2958       C  0.57866855  0.29477199  0.59137475     0.37200
N2959       N  0.74832590  0.25876144  0.61185887    -0.37700
N2960       N  0.54966289  0.30064814  0.58963024    -0.37700
N2961       N  0.68064084  0.19860114  0.63857161    -0.37100
N2962       N  0.61953215  0.36832236  0.56244317    -0.37100
C2963       C  0.81707684  0.38209934  0.97957606    -0.03800
C2964       C  0.78843131  0.35461836  0.49339610    -0.00900
C2965       C  0.75581726  0.36163511  0.50380279     0.04100
C2966       C  0.75124561  0.39100420  0.52020405    -0.03800
C2967       C  0.77346328  0.41899170  0.51310982    -0.00900
C2968       C  0.80131551  0.41465895  0.49334332     0.04100
C2969       C  0.80058292  0.32109823  0.98682405     0.38700
C2970       C  0.76832275  0.45153747  0.52641296     0.38700
C2971       C  0.83404847  0.44311627  0.98114608     0.37200
C2972       C  0.72851316  0.35047609  0.48564897     0.37200
N2973       N  0.85227518  0.46518120  0.97426937    -0.37700
N2974       N  0.70820941  0.34166382  0.46946795    -0.37700
N2975       N  0.76450327  0.47763720  0.53707865    -0.37100
N2976       N  0.80721253  0.29266966  0.98876800    -0.37100
loop_ 
_geom_bond_atom_site_label_1 
_geom_bond_atom_site_label_2 
_geom_bond_distance 
_geom_bond_site_symmetry_2 
_ccdc_geom_bond_type 
C1            H2   1.105       .  S
C1            C7   1.535       .  S
C1            C6   1.567       .  S
C1            C5   1.534       .  S
C3            H4   1.089       .  S
C3            C9   1.545       .  S
C3            C8   1.551       .  S
C3           C10   1.586       .  S
C5            C8   1.363       .  D
C5         C1422   1.507       .  S
C6            C9   1.402       .  D
C6         C1433   1.528       .  S
C7           C10   1.407       .  D
C7         C1478   1.531       .  S
C8         C1461   1.516       .  S
C9         C1405   1.545       .  S
C10        C1450   1.534       .  S
O11          C14   1.265       .  A
O11         Cd16   2.457       .  S
C12          O21   1.269       .  A
C12          O17   1.266       .  A
C12        C1391   1.517       .  S
O13          C19   1.260       .  A
O13         Cd16   2.503       .  S
C14          O22   1.264       .  A
C14        C1377   1.499       .  S
C15          O20   1.267       .  A
C15          O18   1.266       .  A
C15        C1366   1.477       .  S
Cd16         O23   2.493       .  S
Cd16         O22   2.524       .  S
Cd16         O21   2.526       .  S
Cd16         O17   2.523       .  S
Cd16         O20   2.459       .  S
Cd16         O18   2.436       .  S
C19          O23   1.265       .  A
C19        C1436   1.483       .  S
C24          H25   1.087       .  S
C24          C30   1.525       .  S
C24          C29   1.508   1_554  S
C24          C28   1.552       .  S
C26        H1515   1.095       .  S
C26          C31   1.594   1_556  S
C26          C33   1.543   1_556  S
C26        C1520   1.573       .  S
H27        C1514   1.088       .  S
C28          C31   1.422       .  D
C28        C1419   1.559       .  S
C29        C1520   1.368       .  D
C29        C2809   1.473       .  S
C30          C33   1.373       .  D
C30        C1394   1.519       .  S
C31        C1349   1.548   1_554  S
C32        C1514   1.562       .  S
C32        C1517   1.374       .  D
C32        C1310   1.538       .  S
C33        C1338   1.483       .  S
O34          C37   1.281       .  A
O34         Cd39   2.555       .  S
C35          O44   1.264       .  A
C35          O40   1.277       .  A
C35        C1475   1.521       .  S
O36          C42   1.267       .  A
O36         Cd39   2.417       .  S
C37          O45   1.263       .  A
C37        C1293   1.517       .  S
C38          O43   1.261       .  A
C38          O41   1.275       .  A
C38        C1279   1.504       .  S
Cd39         O46   2.327       .  S
Cd39         O45   2.514       .  S
Cd39         O44   2.492       .  S
Cd39         O40   2.625       .  S
Cd39         O43   2.381       .  S
Cd39         O41   2.527       .  S
C42          O46   1.258       .  A
C42        C1324   1.466       .  S
C47          H48   1.106       .  S
C47          C53   1.530       .  S
C47          C52   1.587       .  S
C47          C51   1.555       .  S
C49          H50   1.087       .  S
C49          C55   1.551       .  S
C49          C54   1.538       .  S
C49          C56   1.598       .  S
C51          C54   1.352       .  D
C51        C1223   1.524       .  S
C52          C55   1.405       .  D
C52        C1237   1.525       .  S
C53          C56   1.416       .  D
C53        C1265   1.536       .  S
C54        C1380   1.520       .  S
C55        C1408   1.548       .  S
C56        C1251   1.562       .  S
O57          C60   1.269       .  A
O57         Cd62   2.565       .  S
C58          O67   1.262       .  A
C58          O63   1.271       .  A
C58        C1464   1.494       .  S
O59          C65   1.261       .  A
O59         Cd62   2.399       .  S
C60          O68   1.263       .  A
C60        C1212   1.491       .  S
C61          O66   1.265       .  A
C61          O64   1.260       .  A
C61        C1240   1.481       .  S
Cd62         O69   2.518       .  S
Cd62         O68   2.425       .  S
Cd62         O67   2.402       .  S
Cd62         O63   2.474       .  S
Cd62         O66   2.470       .  S
Cd62         O64   2.450       .  S
C65          O69   1.268       .  A
C65        C1195   1.484       .  S
C70          H71   1.106       .  S
C70          C76   1.514       .  S
C70          C75   1.551       .  S
C70          C74   1.551       .  S
C72          H73   1.107       .  S
C72          C78   1.553       .  S
C72          C77   1.586       .  S
C72          C79   1.585       .  S
C74          C77   1.388       .  D
C74        C1226   1.522       .  S
C75          C78   1.415       .  D
C75        C1167   1.540       .  S
C76          C79   1.379       .  D
C76        C1209   1.514       .  S
C77        C1296   1.559       .  S
C78        C1307   1.532       .  S
C79        C1184   1.521       .  S
O80          C83   1.278       .  A
O80         Cd85   2.608       .  S
C81          O90   1.265       .  A
C81          O86   1.275       .  A
C81        C1268   1.528       .  S
O82          C88   1.267       .  A
O82         Cd85   2.489       .  S
C83          O91   1.260       .  A
C83        C1352   1.513       .  S
C84          O89   1.264       .  A
C84          O87   1.271       .  A
C84        C1153   1.488       .  S
Cd85         O92   2.326       .  S
Cd85         O91   2.436       .  S
Cd85         O90   2.565       .  S
Cd85         O86   2.577       .  S
Cd85         O89   2.401       .  S
Cd85         O87   2.507       .  S
C88          O92   1.264       .  A
C88        C1170   1.457       .  S
C93          H94   1.093       .  S
C93          C99   1.533       .  S
C93          C98   1.563       .  S
C93          C97   1.506       .  S
C95          H96   1.108       .  S
C95         C101   1.565       .  S
C95         C100   1.572       .  S
C95         C102   1.556       .  S
C97         C100   1.377       .  D
C97        C1125   1.538       .  S
C98         C101   1.411       .  D
C98        C1097   1.521       .  S
C99         C102   1.362       .  D
C99        C1069   1.475       .  S
C100       C1111   1.480       .  S
C101       C1083   1.560       .  S
C102       C1139   1.512       .  S
O103        C106   1.271       .  A
O103       Cd108   2.614       .  S
C104        O113   1.258       .  A
C104        O109   1.275       .  A
C104       C1055   1.492       .  S
O105        C111   1.264       .  A
O105       Cd108   2.473       .  S
C106        O114   1.265       .  A
C106       C1044   1.518       .  S
C107        O112   1.262       .  A
C107        O110   1.270       .  A
C107       C1254   1.492       .  S
Cd108       O115   2.393       .  S
Cd108       O114   2.485       .  S
Cd108       O113   2.420       .  S
Cd108       O109   2.460       .  S
Cd108       O112   2.384       .  S
Cd108       O110   2.505       .  S
C111        O115   1.263       .  A
C111       C1100   1.456       .  S
C116        H117   1.085       .  S
C116        C122   1.536       .  S
C116        C121   1.549       .  S
C116        C120   1.513       .  S
C118        H119   1.107       .  S
C118        C124   1.574       .  S
C118        C123   1.576       .  S
C118        C125   1.552       .  S
C120        C123   1.386       .  D
C120       C1041   1.539       .  S
C121        C124   1.416       .  D
C121        C999   1.537       .  S
C122        C125   1.357       .  D
C122       C1072   1.480       .  S
C123       C1013   1.490       .  S
C124        C985   1.544       .  S
C125       C1027   1.527       .  S
O126        C129   1.262       .  A
O126       Cd131   2.474       .  S
C127        O136   1.275       .  A
C127        O132   1.260       .  A
C127       C2459   1.488   1_554  S
O128        C134   1.265       .  A
O128       Cd131   2.450       .  S
C129        O137   1.271       .  A
C129       C1128   1.529       .  S
C130        O135   1.260       .  A
C130        O133   1.269       .  A
C130       C1447   1.479       .  S
Cd131       O138   2.365       .  S
Cd131       O137   2.636       .  S
Cd131       O136   2.462       .  S
Cd131       O132   2.457       .  S
Cd131       O135   2.384       .  S
Cd131       O133   2.494       .  S
C134        O138   1.263       .  A
C134       C1002   1.451       .  S
C139        H140   1.095       .  S
C139        C145   1.550       .  S
C139        C144   1.581       .  S
C139        C143   1.520       .  S
C141        H142   1.107       .  S
C141        C147   1.539       .  S
C141        C146   1.580       .  S
C141        C148   1.558       .  S
C143        C146   1.383       .  D
C143        C957   1.536       .  S
C144        C147   1.417       .  D
C144        C932   1.545       .  S
C145        C148   1.377       .  D
C145        C915   1.512       .  S
C146        C943   1.501       .  S
C147       C1086   1.544       .  S
C148       C1058   1.540       .  S
O149        C152   1.269       .  A
O149       Cd154   2.562       .  S
C150        O159   1.265       .  A
C150        O155   1.268       .  A
C150       C1142   1.495       .  S
O151        C157   1.267       .  A
O151       Cd154   2.497       .  S
C152        O160   1.264       .  A
C152        C904   1.504       .  S
C153        O158   1.261       .  A
C153        O156   1.268       .  A
C153       C1181   1.485   1_565  S
Cd154       O161   2.489       .  S
Cd154       O160   2.485       .  S
Cd154       O159   2.492       .  S
Cd154       O155   2.436       .  S
Cd154       O158   2.412       .  S
Cd154       O156   2.524       .  S
C157        O161   1.257       .  A
C157        C929   1.491       .  S
C162        H163   1.079       .  S
C162        C168   1.542       .  S
C162        C167   1.551       .  S
C162        C166   1.494       .  S
C164        H165   1.107       .  S
C164        C170   1.549       .  S
C164        C169   1.596       .  S
C164        C171   1.578       .  S
C166        C169   1.393       .  D
C166        C901   1.539       .  S
C167        C170   1.380       .  D
C167        C873   1.488       .  S
C168        C171   1.388       .  D
C168        C918   1.523       .  S
C169        C887   1.504       .  S
C170       C2476   1.531       .  S
C171        C974   1.556       .  S
O172        C175   1.261       .  A
O172       Cd177   2.459       .  S
C173        O182   1.261       .  A
C173        O178   1.273       .  A
C173       C1030   1.497       .  S
O174        C180   1.256       .  A
O174       Cd177   2.482       .  S
C175        O183   1.273       .  A
C175       C2448   1.528   1_554  S
C176        O181   1.262       .  A
C176        O179   1.270       .  A
C176       C1335   1.481   1_565  S
Cd177       O184   2.472       .  S
Cd177       O183   2.624       .  S
Cd177       O182   2.477       .  S
Cd177       O178   2.504       .  S
Cd177       O181   2.365       .  S
Cd177       O179   2.498       .  S
C180        O184   1.265       .  A
C180        C876   1.476       .  S
C185        H186   1.101       .  S
C185        C191   1.561       .  S
C185        C190   1.590       .  S
C185        C189   1.516       .  S
C187        H188   1.100       .  S
C187        C193   1.546       .  S
C187        C192   1.582       .  S
C187        C194   1.544       .  S
C189        C192   1.381       .  D
C189        C845   1.539       .  S
C190        C193   1.423       .  D
C190        C831   1.555       .  S
C191        C194   1.371       .  D
C191        C803   1.515       .  S
C192       C1198   1.490       .  S
C193        C820   1.565       .  S
C194        C859   1.530       .  S
O195        C198   1.270       .  A
O195       Cd200   2.567       .  S
C196        O205   1.263       .  A
C196        O201   1.269       .  A
C196        C789   1.503       .  S
O197        C203   1.259       .  A
O197       Cd200   2.510       .  S
C198        O206   1.267       .  A
C198        C775   1.526       .  S
C199        O204   1.262       .  A
C199        O202   1.266       .  A
C199        C761   1.479       .  S
Cd200       O207   2.526       .  S
Cd200       O206   2.562       .  S
Cd200       O205   2.505       .  S
Cd200       O201   2.500       .  S
Cd200       O204   2.421       .  S
Cd200       O202   2.464       .  S
C203        O207   1.266       .  A
C203        C834   1.504       .  S
C208        H209   1.069       .  S
C208        C214   1.530       .  S
C208        C213   1.520       .  S
C208        C212   1.504       .  S
C210        H211   1.098       .  S
C210        C216   1.556       .  S
C210        C215   1.583       .  S
C210        C217   1.575       .  S
C212        C215   1.399       .  D
C212        C778   1.520       .  S
C213        C216   1.358       .  D
C213        C733   1.481       .  S
C214        C217   1.409       .  D
C214        C806   1.540       .  S
C215       C1363   1.537       .  S
C216        C722   1.525       .  S
C217        C747   1.514       .  S
O218        C221   1.263       .  A
O218       Cd223   2.463       .  S
C219        O228   1.261       .  A
C219        O224   1.275       .  A
C219       C2196   1.507       .  S
O220        C226   1.258       .  A
O220       Cd223   2.396       .  S
C221        O229   1.275       .  A
C221        C848   1.524       .  S
C222        O227   1.260       .  A
C222        O225   1.272       .  A
C222        C691   1.494       .  S
Cd223       O230   2.452       .  S
Cd223       O229   2.619       .  S
Cd223       O228   2.446       .  S
Cd223       O224   2.584       .  S
Cd223       O227   2.399       .  S
Cd223       O225   2.525       .  S
C226        O230   1.264       .  A
C226        C736   1.457       .  S
C231        H232   1.102       .  S
C231        C237   1.543       .  S
C231        C236   1.575       .  S
C231        C235   1.528       .  S
C233        H234   1.107       .  S
C233        C239   1.561       .  S
C233        C238   1.592       .  S
C233        C240   1.577       .  S
C235        C238   1.405       .  D
C235        C677   1.560       .  S
C236        C239   1.376       .  D
C236        C666   1.488       .  S
C237        C240   1.371       .  D
C237        C652   1.512       .  S
C238       C1156   1.513       .  S
C239        C817   1.551       .  S
C240        C792   1.525       .  S
O241        C244   1.275       .  A
O241       Cd246   2.565       .  S
C242        O251   1.258       .  A
C242        O247   1.275       .  A
C242        C862   1.507       .  S
O243        C249   1.266       .  A
O243       Cd246   2.412       .  S
C244        O252   1.267       .  A
C244        C635   1.510       .  S
C245        O250   1.263       .  A
C245        O248   1.269       .  A
C245        C624   1.476       .  S
Cd246       O253   2.442       .  S
Cd246       O252   2.428       .  S
Cd246       O251   2.429       .  S
Cd246       O247   2.466       .  S
Cd246       O250   2.359       .  S
Cd246       O248   2.469       .  S
C249        O253   1.257       .  A
C249        C663   1.466       .  S
C254        H255   1.106       .  S
C254        C260   1.567       .  S
C254        C259   1.547       .  S
C254        C258   1.531       .  S
C256        H257   1.095       .  S
C256        C262   1.555       .  S
C256        C261   1.556       .  S
C256        C263   1.556       .  S
C258        C261   1.374       .  D
C258        C638   1.528       .  S
C259        C262   1.392       .  D
C259        C607   1.517       .  S
C260        C263   1.398       .  D
C260        C649   1.527       .  S
C261       C1282   1.498       .  S
C262       C2207   1.528       .  S
C263        C705   1.539       .  S
O264        C267   1.269       .  A
O264       Cd269   2.592       .  S
C265        O274   1.263       .  A
C265        O270   1.269       .  A
C265        C750   1.491       .  S
O266        C272   1.263       .  A
O266       Cd269   2.466       .  S
C267        O275   1.264       .  A
C267       C2168   1.519       .  S
C268        O273   1.271       .  A
C268        O271   1.260       .  A
C268        C593   1.498       .  S
Cd269       O276   2.462       .  S
Cd269       O275   2.533       .  S
Cd269       O274   2.473       .  S
Cd269       O270   2.486       .  S
Cd269       O273   2.549       .  S
Cd269       O271   2.424       .  S
C272        O276   1.264       .  A
C272        C610   1.472       .  S
C277        H278   1.097       .  S
C277        C283   1.521       .  S
C277        C282   1.549       .  S
C277        C281   1.527       .  S
C279        H280   1.097       .  S
C279        C284   1.595       .  S
C279        C286   1.579       .  S
C279       C1773   1.552       .  S
C281        C284   1.388       .  D
C281        C526   1.518       .  S
C282       C1773   1.384       .  D
C282       C2039   1.498   1_554  S
C283        C286   1.382       .  D
C283        C565   1.509       .  S
C284        C579   1.552       .  S
C285       C1767   1.554       .  S
C285       C1770   1.384       .  D
C285        C537   1.539       .  S
C286        C596   1.532       .  S
O287        C290   1.277       .  A
O287       Cd292   2.563       .  S
C288        O297   1.268       .  A
C288        O293   1.275       .  A
C288        C495   1.503       .  S
O289        C295   1.261       .  A
O289       Cd292   2.471       .  S
C290        O298   1.258       .  A
C290        C509   1.498       .  S
C291        O296   1.267       .  A
C291        O294   1.270       .  A
C291        C890   1.481   1_455  S
Cd292       O299   2.393       .  S
Cd292       O298   2.411       .  S
Cd292       O297   2.467       .  S
Cd292       O293   2.529       .  S
Cd292       O296   2.389       .  S
Cd292       O294   2.474       .  S
C295        O299   1.261       .  A
C295        C554   1.469       .  S
C300        H301   1.080       .  S
C300        C306   1.518       .  S
C300        C305   1.571       .  S
C300        C304   1.547       .  S
C302        H303   1.111       .  S
C302        C308   1.553       .  S
C302        C307   1.564       .  S
C302        C309   1.574       .  S
C304        C307   1.391       .  D
C304        C523   1.556       .  S
C305        C308   1.409       .  D
C305        C470   1.519       .  S
C306        C309   1.374       .  D
C306        C498   1.526       .  S
C307        C481   1.508       .  S
C308        C453   1.547       .  S
C309        C694   1.495       .  S
O310        C313   1.268       .  A
O310       Cd315   2.413       .  S
C311        O320   1.271       .  A
C311        O316   1.264       .  A
C311        C568   1.501       .  S
O312        C318   1.270       .  A
O312       Cd315   2.490       .  S
C313        O321   1.270       .  A
C313        C442   1.495       .  S
C314        O319   1.262       .  A
C314        O317   1.269       .  A
C314       C1016   1.475   1_455  S
Cd315       O322   2.432       .  S
Cd315       O321   2.516       .  S
Cd315       O320   2.538       .  S
Cd315       O316   2.507       .  S
Cd315       O319   2.375       .  S
Cd315       O317   2.506       .  S
C318        O322   1.256       .  A
C318        C467   1.479       .  S
C323        H324   1.094       .  S
C323        C329   1.521       .  S
C323        C328   1.563       .  S
C323        C327   1.547       .  S
C325        H326   1.089       .  S
C325        C331   1.537       .  S
C325        C330   1.563       .  S
C325        C332   1.582       .  S
C327        C330   1.380       .  D
C327        C397   1.537       .  S
C328        C331   1.381       .  D
C328        C411   1.506       .  S
C329        C332   1.404       .  D
C329        C425   1.520       .  S
C330        C439   1.532       .  S
C331        C456   1.525       .  S
C332        C764   1.529       .  S
O333        C336   1.261       .  A
O333       Cd338   2.467       .  S
C334        O343   1.267       .  A
C334        O339   1.269       .  A
C334        C386   1.515       .  S
O335        C341   1.267       .  A
O335       Cd338   2.484       .  S
C336        O344   1.271       .  A
C336        C484   1.493       .  S
C337        O342   1.259       .  A
C337        O340   1.263       .  A
C337       C1114   1.459       .  S
Cd338       O345   2.450       .  S
Cd338       O344   2.505       .  S
Cd338       O343   2.531       .  S
Cd338       O339   2.547       .  S
Cd338       O342   2.367       .  S
Cd338       O340   2.468       .  S
C341        O345   1.257       .  A
C341        C414   1.467       .  S
C346        H347   1.087       .  S
C346        C352   1.517       .  S
C346        C351   1.534       .  S
C346        C350   1.552       .  S
C348        H349   1.096       .  S
C348        C354   1.570       .  S
C348        C353   1.570       .  S
C348        C355   1.547       .  S
C350        C353   1.429       .  D
C350        C400   1.552       .  S
C351        C354   1.387       .  D
C351        C369   1.494       .  S
C352        C355   1.371       .  D
C352        C383   1.524       .  S
C353        C512   1.561       .  S
C354        C540   1.546       .  S
C355        C621   1.481       .  S
O356        C359   1.279       .  A
O356       Cd361   2.525       .  S
C357        O366   1.266       .  A
C357        O362   1.271       .  A
C357        C428   1.525       .  S
O358        C364   1.257       .  A
O358       Cd361   2.311       .  S
C359        O367   1.263       .  A
C359        C582   1.508       .  S
C360        O365   1.265       .  A
C360        O363   1.272       .  A
C360        C946   1.495       .  S
Cd361       O368   2.489       .  S
Cd361       O367   2.503       .  S
Cd361       O366   2.557       .  S
Cd361       O362   2.567       .  S
Cd361       O365   2.398       .  S
Cd361       O363   2.531       .  S
C364        O368   1.268       .  A
C364        C372   1.473       .  S
C369        C370   1.415       .  A
C369        C374   1.410       .  A
C370        C371   1.411       .  A
C370        C375   1.444       .  S
C371        C372   1.410       .  A
C371        C378   1.451       .  S
C372        C373   1.410       .  A
C373        C374   1.395       .  A
C373        C376   1.457       .  S
C374        C377   1.437       .  S
C375        N382   1.155       .  T
C376        N381   1.156       .  T
C377        N379   1.151       .  T
C378        N380   1.157       .  T
C383        C384   1.420       .  A
C383        C388   1.417       .  A
C384        C385   1.424       .  A
C384        C389   1.441       .  S
C385        C386   1.408       .  A
C385        C392   1.449       .  S
C386        C387   1.409       .  A
C387        C388   1.421       .  A
C387        C390   1.442       .  S
C388        C391   1.440       .  S
C389        N396   1.156       .  T
C390        N395   1.156       .  T
C391        N393   1.155       .  T
C392        N394   1.157       .  T
C397        C398   1.404       .  A
C397        C402   1.406       .  A
C398        C399   1.415       .  A
C398        C403   1.450       .  S
C399        C400   1.451       .  A
C399        C406   1.446       .  S
C400        C401   1.402       .  A
C401        C402   1.407       .  A
C401        C404   1.440       .  S
C402        C405   1.442       .  S
C403        N410   1.158       .  T
C404        N409   1.156       .  T
C405        N407   1.157       .  T
C406        N408   1.159       .  T
C411        C412   1.406       .  A
C411        C416   1.420       .  A
C412        C413   1.390       .  A
C412        C417   1.429       .  S
C413        C414   1.398       .  A
C413        C420   1.457       .  S
C414        C415   1.410       .  A
C415        C416   1.425       .  A
C415        C418   1.448       .  S
C416        C419   1.442       .  S
C417        N424   1.154       .  T
C418        N423   1.157       .  T
C419        N421   1.156       .  T
C420        N422   1.154       .  T
C425        C426   1.418       .  A
C425        C430   1.413       .  A
C426        C427   1.416       .  A
C426        C431   1.447       .  S
C427        C428   1.410       .  A
C427        C434   1.440       .  S
C428        C429   1.419       .  A
C429        C430   1.430       .  A
C429        C432   1.445       .  S
C430        C433   1.444       .  S
C431        N438   1.156       .  T
C432        N437   1.157       .  T
C433        N435   1.157       .  T
C434        N436   1.154       .  T
C439        C440   1.423       .  A
C439        C444   1.422       .  A
C440        C441   1.403       .  A
C440        C445   1.440       .  S
C441        C442   1.399       .  A
C441        C448   1.444       .  S
C442        C443   1.418       .  A
C443        C444   1.428       .  A
C443        C446   1.448       .  S
C444        C447   1.447       .  S
C445        N452   1.153       .  T
C446        N451   1.157       .  T
C447        N449   1.157       .  T
C448        N450   1.151       .  T
C453        C454   1.386       .  A
C453        C458   1.449       .  A
C454        C455   1.391       .  A
C454        C459   1.454       .  S
C455        C456   1.385       .  A
C455        C462   1.427       .  S
C456        C457   1.432       .  A
C457        C458   1.464       .  A
C457        C460   1.444       .  S
C458        C461   1.437       .  S
C459        N466   1.158       .  T
C460        N465   1.157       .  T
C461        N463   1.156       .  T
C462        N464   1.151       .  T
C467        C468   1.400       .  A
C467        C472   1.418       .  A
C468        C469   1.400       .  A
C468        C473   1.448       .  S
C469        C470   1.414       .  A
C469        C476   1.440       .  S
C470        C471   1.399       .  A
C471        C472   1.420       .  A
C471        C474   1.441       .  S
C472        C475   1.446       .  S
C473        N480   1.157       .  T
C474        N479   1.156       .  T
C475        N477   1.156       .  T
C476        N478   1.156       .  T
C481        C482   1.416       .  A
C481        C486   1.415       .  A
C482        C483   1.405       .  A
C482        C487   1.456       .  S
C483        C484   1.404       .  A
C483        C490   1.439       .  S
C484        C485   1.414       .  A
C485        C486   1.421       .  A
C485        C488   1.450       .  S
C486        C489   1.445       .  S
C487        N494   1.158       .  T
C488        N493   1.157       .  T
C489        N491   1.156       .  T
C490        N492   1.152       .  T
C495        C500   1.409       .  A
C495       C1984   1.405       .  A
C496        C497   1.429       .  A
C496       C1983   1.411   1_554  A
C496        C501   1.448       .  S
C497        C498   1.419       .  A
C497        C504   1.443       .  S
C498        C499   1.412       .  A
C499       C1988   1.421       .  A
C499        C502   1.447       .  S
C500       C1987   1.417       .  A
C500        C503   1.437       .  S
C501        N508   1.157       .  T
C502        N507   1.157       .  T
C503        N505   1.154       .  T
C504        N506   1.157       .  T
C509        C510   1.403       .  A
C509        C514   1.414       .  A
C510        C511   1.420       .  A
C510        C515   1.447       .  S
C511        C512   1.409       .  A
C511        C518   1.445       .  S
C512        C513   1.425       .  A
C513        C514   1.423       .  A
C513        C516   1.438       .  S
C514        C517   1.449       .  S
C515        N522   1.157       .  T
C516        N521   1.156       .  T
C517        N519   1.157       .  T
C518        N520   1.157       .  T
C523        C524   1.435       .  A
C523        C528   1.411       .  A
C524        C525   1.426       .  A
C524        C529   1.444       .  S
C525        C526   1.441       .  A
C525        C532   1.436       .  S
C526        C527   1.416       .  A
C527        C528   1.388       .  A
C527        C530   1.442       .  S
C528        C531   1.457       .  S
C529        N536   1.158       .  T
C530        N535   1.157       .  T
C531        N533   1.157       .  T
C532       N2022   1.155       .  T
N534       C2020   1.156       .  T
C537        C538   1.428       .  A
C537        C542   1.424       .  A
C538        C539   1.411       .  A
C538        C543   1.443       .  S
C539        C540   1.408       .  A
C539        C546   1.448       .  S
C540        C541   1.412       .  A
C541        C542   1.427       .  A
C541        C544   1.447       .  S
C542        C545   1.448       .  S
C543        N550   1.156       .  T
C544        N549   1.158       .  T
C545        N547   1.157       .  T
C546        N548   1.157       .  T
C551       C1770   1.496       .  S
C551        C552   1.415       .  A
C551       C2044   1.419       .  A
C552        C553   1.396       .  A
C552        C557   1.444       .  S
C553        C554   1.406       .  A
C553        C560   1.453       .  S
C554        C555   1.403       .  A
C555       C2044   1.413       .  A
C555       C2046   1.452       .  S
C556       C2039   1.418   1_554  A
C556       C2043   1.412   1_554  A
C556        C559   1.442       .  S
C557        N564   1.157       .  T
C558       C2043   1.453   1_554  S
C558        N563   1.157       .  T
C559        N561   1.156       .  T
C560        N562   1.156       .  T
C565        C566   1.416       .  A
C565        C570   1.412       .  A
C566        C567   1.409       .  A
C566        C571   1.442       .  S
C567        C568   1.400       .  A
C567        C574   1.437       .  S
C568        C569   1.411       .  A
C569        C570   1.424       .  A
C569        C572   1.445       .  S
C570        C573   1.442       .  S
C571        N578   1.156       .  T
C572        N577   1.157       .  T
C573        N575   1.157       .  T
C574        N576   1.153       .  T
C579        C580   1.422       .  A
C579        C584   1.438       .  A
C580       C2069   1.428       .  A
C580        C585   1.449       .  S
C581        C582   1.415       .  A
C581       C2068   1.433       .  A
C581        C588   1.447       .  S
C582       C2071   1.402       .  A
C583        C584   1.417   1_556  A
C583       C2070   1.399       .  A
C583        C586   1.452       .  S
C584        C587   1.439       .  S
C585        N592   1.157       .  T
C586       N2079   1.157       .  T
C587        N589   1.155       .  T
C588        N590   1.157       .  T
N591       C2074   1.155       .  T
C593        C594   1.412   1_545  A
C593        C598   1.411   1_545  A
C594        C595   1.414       .  A
C594        C599   1.453   1_565  S
C595        C596   1.419       .  A
C595       C2090   1.442       .  S
C596        C597   1.417       .  A
C597        C598   1.418       .  A
C597        C600   1.442       .  S
C598        C601   1.449       .  S
C599       N2094   1.157   1_554  T
C600        N605   1.157       .  T
C601        N603   1.157   1_565  T
C602       C2083   1.441       .  S
C602        N604   1.156       .  T
N606       C2087   1.157       .  T
C607        C608   1.425       .  A
C607       C2100   1.427       .  A
C608       C2097   1.393       .  A
C608        C613   1.443       .  S
C609        C610   1.391       .  A
C609       C2096   1.395       .  A
C609       C2104   1.456   1_554  S
C610        C611   1.406       .  A
C611        C612   1.421       .  A
C611        C614   1.446       .  S
C612       C2095   1.426       .  A
C612        C615   1.443       .  S
C613        N620   1.154       .  T
C614        N619   1.157       .  T
C615        N617   1.157       .  T
C616       C2097   1.455       .  S
C616        N618   1.157       .  T
C621        C622   1.409       .  A
C621        C626   1.416       .  A
C622        C623   1.399   1_565  A
C622        C627   1.450       .  S
C623        C624   1.415       .  A
C623        C630   1.454       .  S
C624        C625   1.406   1_545  A
C625        C626   1.413       .  A
C625        C628   1.451       .  S
C626        C629   1.442       .  S
C627        N634   1.157       .  T
C628        N633   1.157   1_565  T
C629        N631   1.155       .  T
C630        N632   1.157       .  T
C635        C636   1.408       .  A
C635        C640   1.416       .  A
C636        C637   1.412       .  A
C636        C641   1.454       .  S
C637        C638   1.419       .  A
C637        C644   1.441       .  S
C638        C639   1.419       .  A
C639        C640   1.431       .  A
C639        C642   1.445       .  S
C640        C643   1.447       .  S
C641        N648   1.157       .  T
C642        N647   1.157       .  T
C643        N645   1.157       .  T
C644        N646   1.155       .  T
C649        C650   1.428       .  A
C649        C654   1.414       .  A
C650        C651   1.423       .  A
C650        C655   1.442       .  S
C651        C652   1.415       .  A
C651        C658   1.448       .  S
C652        C653   1.399       .  A
C653        C654   1.399       .  A
C653        C656   1.437       .  S
C654        C657   1.435       .  S
C655       N2150   1.156       .  T
C656        N661   1.156       .  T
C657        N659   1.153       .  T
C658        N660   1.156       .  T
N662       C2143   1.156       .  T
C663        C664   1.410       .  A
C663        C668   1.408       .  A
C664        C665   1.391       .  A
C664        C669   1.453       .  S
C665        C666   1.393       .  A
C665        C672   1.426       .  S
C666        C667   1.409       .  A
C667        C668   1.416       .  A
C667        C670   1.444       .  S
C668        C671   1.449       .  S
C669        N676   1.156       .  T
C670        N675   1.157       .  T
C671        N673   1.157       .  T
C672        N674   1.150       .  T
C677        C678   1.429       .  A
C677        C682   1.432       .  A
C678        C679   1.441       .  A
C678        C683   1.443       .  S
C679        C680   1.417       .  A
C679       C2174   1.448       .  S
C680       C1755   1.524       .  S
C680        C681   1.403       .  A
C681        C682   1.421       .  A
C681        C684   1.457       .  S
C682        C685   1.437       .  S
C683        N690   1.156       .  T
C684        N689   1.157       .  T
C685        N687   1.154       .  T
C686       C2167   1.449       .  S
C686        N688   1.157       .  T
C691        C692   1.413       .  A
C691        C696   1.419       .  A
C692        C693   1.421       .  A
C692        C697   1.449       .  S
C693        C694   1.415       .  A
C693        C700   1.447       .  S
C694        C695   1.409       .  A
C695        C696   1.404       .  A
C695        C698   1.453       .  S
C696        C699   1.453       .  S
C697        N704   1.157       .  T
C698        N703   1.158       .  T
C699        N701   1.157       .  T
C700        N702   1.157       .  T
C705        C706   1.421       .  A
C705       C2198   1.428       .  A
C706        C707   1.425       .  A
C706        C711   1.442       .  S
C707        C708   1.406       .  A
C707        C714   1.435       .  S
C708       C1707   1.513       .  S
C708       C2197   1.409       .  A
C709        C710   1.412       .  A
C709       C2196   1.407       .  A
C709        C712   1.446       .  S
C710       C2193   1.428   1_554  A
C710        C713   1.444       .  S
C711        N718   1.156       .  T
C712        N717   1.155       .  T
C713        N715   1.157       .  T
C714        N716   1.154       .  T
C719       C1750   1.514       .  S
C719        C720   1.406       .  A
C719        C724   1.418       .  A
C720        C721   1.406       .  A
C720        C725   1.444       .  S
C721        C722   1.416       .  A
C721        C728   1.438       .  S
C722        C723   1.419       .  A
C723        C724   1.428       .  A
C723        C726   1.447       .  S
C724        C727   1.448       .  S
C725        N732   1.155       .  T
C726        N731   1.157       .  T
C727        N729   1.157       .  T
C728        N730   1.156       .  T
C733        C734   1.409       .  A
C733        C738   1.419       .  A
C734        C735   1.412       .  A
C734        C739   1.447       .  S
C735        C736   1.407       .  A
C735        C742   1.446       .  S
C736        C737   1.394       .  A
C737        C738   1.391       .  A
C737        C740   1.451       .  S
C738        C741   1.450       .  S
C739        N746   1.157       .  T
C740        N745   1.155       .  T
C741        N743   1.158       .  T
C742        N744   1.158       .  T
C747        C748   1.417       .  A
C747        C752   1.394       .  A
C748        C749   1.427       .  A
C748        C753   1.446       .  S
C749        C750   1.421       .  A
C749        C756   1.447       .  S
C750        C751   1.416       .  A
C751        C752   1.395       .  A
C751        C754   1.449       .  S
C752        C755   1.441       .  S
C753        N760   1.158       .  T
C754        N759   1.156       .  T
C755        N757   1.156       .  T
C756        N758   1.157       .  T
C761        C762   1.406       .  A
C761        C766   1.410       .  A
C762        C763   1.409       .  A
C762        C767   1.454       .  S
C763        C764   1.426       .  A
C763        C770   1.444       .  S
C764        C765   1.414       .  A
C765        C766   1.409       .  A
C765        C768   1.443       .  S
C766        C769   1.451       .  S
C767        N774   1.157       .  T
C768        N773   1.157       .  T
C769        N771   1.157       .  T
C770        N772   1.157       .  T
C775        C776   1.418       .  A
C775        C780   1.416       .  A
C776        C777   1.423       .  A
C776        C781   1.449       .  S
C777        C778   1.421       .  A
C777        C784   1.448       .  S
C778        C779   1.415       .  A
C779        C780   1.426       .  A
C779        C782   1.447       .  S
C780        C783   1.443       .  S
C781        N788   1.157       .  T
C782        N787   1.157       .  T
C783        N785   1.156       .  T
C784        N786   1.156       .  T
C789        C790   1.413       .  A
C789        C794   1.435       .  A
C790        C791   1.398       .  A
C790        C795   1.442       .  S
C791        C792   1.392       .  A
C791        C798   1.441       .  S
C792        C793   1.436       .  A
C793        C794   1.450       .  A
C793        C796   1.438       .  S
C794        C797   1.446       .  S
C795        N802   1.156       .  T
C796        N801   1.156       .  T
C797        N799   1.157       .  T
C798        N800   1.155       .  T
C803        C804   1.402       .  A
C803        C808   1.423       .  A
C804        C805   1.408       .  A
C804        C809   1.437       .  S
C805        C806   1.439       .  A
C805        C812   1.449       .  S
C806        C807   1.399       .  A
C807        C808   1.405       .  A
C807        C810   1.438       .  S
C808        C811   1.446       .  S
C809        N816   1.148       .  T
C810        N815   1.156       .  T
C811        N813   1.157       .  T
C812        N814   1.158       .  T
C817        C818   1.389       .  A
C817        C822   1.418       .  A
C818        C819   1.417       .  A
C818        C823   1.445       .  S
C819        C820   1.411       .  A
C819        C826   1.428       .  S
C820        C821   1.440       .  A
C821        C822   1.448       .  A
C821        C824   1.446       .  S
C822        C825   1.443       .  S
C823        N830   1.158       .  T
C824        N829   1.157       .  T
C825        N827   1.157       .  T
C826        N828   1.153       .  T
C831        C832   1.418       .  A
C831        C836   1.427       .  A
C832        C833   1.426       .  A
C832        C837   1.444       .  S
C833        C834   1.413       .  A
C833        C840   1.444       .  S
C834        C835   1.400       .  A
C835        C836   1.414       .  A
C835        C838   1.451       .  S
C836        C839   1.436       .  S
C837        N844   1.158       .  T
C838        N843   1.157       .  T
C839        N841   1.154       .  T
C840        N842   1.157       .  T
C845        C846   1.426       .  A
C845        C850   1.420       .  A
C846        C847   1.436       .  A
C846        C851   1.444       .  S
C847        C848   1.414       .  A
C847        C854   1.450       .  S
C848        C849   1.409       .  A
C849        C850   1.421       .  A
C849        C852   1.448       .  S
C850        C853   1.440       .  S
C851        N858   1.157       .  T
C852        N857   1.156       .  T
C853        N855   1.155       .  T
C854        N856   1.157       .  T
C859        C860   1.420       .  A
C859        C864   1.426       .  A
C860        C861   1.423       .  A
C860        C865   1.448       .  S
C861        C862   1.424       .  A
C861        C868   1.451       .  S
C862        C863   1.407       .  A
C863        C864   1.406       .  A
C863        C866   1.455       .  S
C864        C867   1.442       .  S
C865        N872   1.157       .  T
C866        N871   1.156       .  T
C867        N869   1.156       .  T
C868        N870   1.157       .  T
C873        C874   1.417       .  A
C873       C2366   1.384       .  A
C874       C2363   1.426       .  A
C874        C879   1.444       .  S
C875        C876   1.413       .  A
C875       C2362   1.425       .  A
C875        C882   1.446       .  S
C876        C877   1.396   1_554  A
C877        C878   1.392   1_556  A
C877        C880   1.446       .  S
C878       C2361   1.390   1_554  A
C878        C881   1.434       .  S
C879        N886   1.157       .  T
C880        N885   1.158       .  T
C881        N883   1.156       .  T
C882        N884   1.157       .  T
C887        C888   1.415       .  A
C887        C892   1.419       .  A
C888        C889   1.402       .  A
C888        C893   1.439       .  S
C889        C890   1.408       .  A
C889        C896   1.458   1_655  S
C890        C891   1.407       .  A
C891        C892   1.420       .  A
C891        C894   1.449       .  S
C892        C895   1.443       .  S
C893        N900   1.153       .  T
C894        N899   1.157       .  T
C895        N897   1.157       .  T
C896        N898   1.157       .  T
C901        C902   1.426       .  A
C901        C906   1.437       .  A
C902        C903   1.427       .  A
C902        C907   1.441       .  S
C903        C904   1.406       .  A
C903        C910   1.447       .  S
C904        C905   1.399       .  A
C905        C906   1.420       .  A
C905        C908   1.454       .  S
C906        C909   1.444       .  S
C907        N914   1.155       .  T
C908        N913   1.157       .  T
C909        N911   1.156       .  T
C910        N912   1.156       .  T
C915        C916   1.417       .  A
C915        C920   1.416       .  A
C916        C917   1.413       .  A
C916        C921   1.436       .  S
C917        C918   1.425       .  A
C917        C924   1.450       .  S
C918        C919   1.410       .  A
C919        C920   1.396       .  A
C919        C922   1.448       .  S
C920        C923   1.448       .  S
C921        N928   1.150       .  T
C922        N927   1.157       .  T
C923        N925   1.157       .  T
C924        N926   1.158       .  T
C929        C930   1.404       .  A
C929        C934   1.394       .  A
C930        C931   1.421       .  A
C930        C935   1.445       .  S
C931        C932   1.417       .  A
C931        C938   1.443       .  S
C932        C933   1.435       .  A
C933        C934   1.413       .  A
C933        C936   1.438       .  S
C934        C937   1.452       .  S
C935        N942   1.157       .  T
C936        N941   1.155       .  T
C937        N939   1.157       .  T
C938        N940   1.157       .  T
C943        C944   1.418       .  A
C943        C948   1.411       .  A
C944        C945   1.424       .  A
C944        C949   1.446       .  S
C945        C946   1.412       .  A
C945        C952   1.449       .  S
C946        C947   1.413       .  A
C947        C948   1.403       .  A
C947        C950   1.453       .  S
C948        C951   1.448       .  S
C949        N956   1.157       .  T
C950        N955   1.156       .  T
C951        N953   1.157       .  T
C952        N954   1.157       .  T
C957        C958   1.426       .  A
C957        C962   1.418       .  A
C958        C959   1.431       .  A
C958        C963   1.442       .  S
C959        C960   1.411       .  A
C959        C966   1.451       .  S
C960       C1663   1.523       .  S
C960        C961   1.413       .  A
C961        C962   1.423       .  A
C961       C2452   1.448       .  S
C962        C965   1.442       .  S
C963        N970   1.157       .  T
C964       C2449   1.449   1_554  S
C964        N969   1.156       .  T
C965        N967   1.155       .  T
C966        N968   1.157       .  T
C971       C1615   1.489       .  S
C971        C972   1.396       .  A
C971       C2464   1.409       .  A
C972        C973   1.398       .  A
C972        C977   1.459       .  S
C973        C974   1.434       .  A
C973        C980   1.431       .  S
C974       C2463   1.431       .  A
C975        C976   1.430       .  A
C975       C2462   1.433       .  A
C975        C978   1.443       .  S
C976       C2459   1.409       .  A
C976        C979   1.451       .  S
C977        N984   1.157       .  T
C978        N983   1.156       .  T
C979        N981   1.157       .  T
C980        N982   1.153       .  T
C985        C986   1.435       .  A
C985        C990   1.419       .  A
C986        C987   1.438       .  A
C986        C991   1.447       .  S
C987        C988   1.416       .  A
C987        C994   1.445       .  S
C988       C1658   1.539   1_554  S
C988        C989   1.402       .  A
C989        C990   1.407       .  A
C989        C992   1.433       .  S
C990        C993   1.439       .  S
C991        N998   1.157       .  T
C992        N997   1.154       .  T
C993        N995   1.155       .  T
C994        N996   1.157       .  T
C999       C1000   1.427       .  A
C999       C1004   1.431       .  A
C1000      C1001   1.419       .  A
C1000      C1005   1.447       .  S
C1001      C1002   1.406       .  A
C1001      C1008   1.447       .  S
C1002      C1003   1.390       .  A
C1003      C1004   1.386       .  A
C1003      C1006   1.455       .  S
C1004      C1007   1.443       .  S
C1005      N1012   1.157       .  T
C1006      N1011   1.157       .  T
C1007      N1009   1.156       .  T
C1008      N1010   1.157       .  T
C1013      C1014   1.406       .  A
C1013      C1018   1.418       .  A
C1014      C1015   1.397       .  A
C1014      C1019   1.443       .  S
C1015      C1016   1.409       .  A
C1015      C1022   1.454   1_655  S
C1016      C1017   1.407       .  A
C1017      C1018   1.417       .  A
C1017      C1020   1.449       .  S
C1018      C1021   1.446       .  S
C1019      N1026   1.155       .  T
C1020      N1025   1.157       .  T
C1021      N1023   1.156       .  T
C1022      N1024   1.157       .  T
C1027      C1028   1.403       .  A
C1027      C1032   1.428       .  A
C1028      C1029   1.404       .  A
C1028      C1033   1.428       .  S
C1029      C1030   1.401       .  A
C1029      C1036   1.442       .  S
C1030      C1031   1.408       .  A
C1031      C1032   1.429       .  A
C1031      C1034   1.442       .  S
C1032      C1035   1.444       .  S
C1033      N1040   1.151       .  T
C1034      N1039   1.156       .  T
C1035      N1037   1.157       .  T
C1036      N1038   1.154       .  T
C1041      C1042   1.416       .  A
C1041      C1046   1.426       .  A
C1042      C1043   1.435       .  A
C1042      C1047   1.445       .  S
C1043      C1044   1.417       .  A
C1043      C1050   1.443       .  S
C1044      C1045   1.405       .  A
C1045      C1046   1.418       .  A
C1045      C1048   1.455       .  S
C1046      C1049   1.441       .  S
C1047      N1054   1.157       .  T
C1048      N1053   1.157       .  T
C1049      N1051   1.156       .  T
C1050      N1052   1.156       .  T
C1055      C1056   1.403       .  A
C1055      C1060   1.413       .  A
C1056      C1057   1.407       .  A
C1056      C1061   1.459       .  S
C1057      C1058   1.440       .  A
C1057      C1064   1.444       .  S
C1058      C1059   1.424       .  A
C1059      C1060   1.422       .  A
C1059      C1062   1.445       .  S
C1060      C1063   1.451       .  S
C1061      N1068   1.157       .  T
C1062      N1067   1.157       .  T
C1063      N1065   1.157       .  T
C1064      N1066   1.157       .  T
C1069      C1070   1.399       .  A
C1069      C1074   1.405       .  A
C1070      C1071   1.401       .  A
C1070      C1075   1.447       .  S
C1071      C1072   1.413       .  A
C1071      C1078   1.436       .  S
C1072      C1073   1.400       .  A
C1073      C1074   1.393       .  A
C1073      C1076   1.445       .  S
C1074      C1077   1.432       .  S
C1075      N1082   1.155       .  T
C1076      N1081   1.155       .  T
C1077      N1079   1.151       .  T
C1078      N1080   1.153       .  T
C1083      C1084   1.429       .  A
C1083      C1088   1.418       .  A
C1084      C1085   1.439       .  A
C1084      C1089   1.445       .  S
C1085      C1086   1.424       .  A
C1085      C1092   1.445       .  S
C1086      C1087   1.399       .  A
C1087      C1088   1.422       .  A
C1087      C1090   1.434       .  S
C1088      C1091   1.431       .  S
C1089      N1096   1.156       .  T
C1090      N1095   1.157       .  T
C1091      N1093   1.156       .  T
C1092      N1094   1.157       .  T
C1097      C1098   1.442       .  A
C1097      C1102   1.428       .  A
C1098      C1099   1.397       .  A
C1098      C1103   1.444       .  S
C1099      C1100   1.381       .  A
C1099      C1106   1.455       .  S
C1100      C1101   1.402       .  A
C1101      C1102   1.413       .  A
C1101      C1104   1.446       .  S
C1102      C1105   1.445       .  S
C1103      N1110   1.156       .  T
C1104      N1109   1.157       .  T
C1105      N1107   1.157       .  T
C1106      N1108   1.157       .  T
C1111      C1112   1.410       .  A
C1111      C1116   1.419       .  A
C1112      C1113   1.402       .  A
C1112      C1117   1.449       .  S
C1113      C1114   1.410       .  A
C1113      C1120   1.454       .  S
C1114      C1115   1.398       .  A
C1115      C1116   1.406       .  A
C1115      C1118   1.451       .  S
C1116      C1119   1.445       .  S
C1117      N1124   1.156       .  T
C1118      N1123   1.157       .  T
C1119      N1121   1.155       .  T
C1120      N1122   1.157       .  T
C1125      C1126   1.417       .  A
C1125      C1130   1.421       .  A
C1126      C1127   1.435       .  A
C1126      C1131   1.446       .  S
C1127      C1128   1.423       .  A
C1127      C1134   1.447       .  S
C1128      C1129   1.416       .  A
C1129      C1130   1.417       .  A
C1129      C1132   1.453       .  S
C1130      C1133   1.445       .  S
C1131      N1138   1.157       .  T
C1132      N1137   1.157       .  T
C1133      N1135   1.156       .  T
C1134      N1136   1.157       .  T
C1139      C1140   1.385       .  A
C1139      C1144   1.426       .  A
C1140      C1141   1.393       .  A
C1140      C1145   1.430       .  S
C1141      C1142   1.401       .  A
C1141      C1148   1.438       .  S
C1142      C1143   1.415       .  A
C1143      C1144   1.430       .  A
C1143      C1146   1.442       .  S
C1144      C1147   1.443       .  S
C1145      N1152   1.154       .  T
C1146      N1151   1.156       .  T
C1147      N1149   1.157       .  T
C1148      N1150   1.156       .  T
C1153      C1154   1.404       .  A
C1153      C1158   1.412       .  A
C1154      C1155   1.418       .  A
C1154      C1159   1.450       .  S
C1155      C1156   1.421       .  A
C1155      C1162   1.441       .  S
C1156      C1157   1.417       .  A
C1157      C1158   1.411       .  A
C1157      C1160   1.443       .  S
C1158      C1161   1.456       .  S
C1159      N1166   1.157       .  T
C1160      N1165   1.155       .  T
C1161      N1163   1.157       .  T
C1162      N1164   1.154       .  T
C1167      C1168   1.441       .  A
C1167      C1172   1.425       .  A
C1168      C1169   1.403       .  A
C1168      C1173   1.434       .  S
C1169      C1170   1.382       .  A
C1169      C1176   1.458       .  S
C1170      C1171   1.387       .  A
C1171      C1172   1.413       .  A
C1171      C1174   1.447       .  S
C1172      C1175   1.435       .  S
C1173      N1180   1.155       .  T
C1174      N1179   1.157       .  T
C1175      N1177   1.157       .  T
C1176      N1178   1.157       .  T
C1181      C1182   1.407       .  A
C1181      C1186   1.405       .  A
C1182      C1183   1.409       .  A
C1182      C1187   1.460       .  S
C1183      C1184   1.423       .  A
C1183      C1190   1.440       .  S
C1184      C1185   1.419       .  A
C1185      C1186   1.420       .  A
C1185      C1188   1.443       .  S
C1186      C1189   1.448       .  S
C1187      N1194   1.157   1_545  T
C1188      N1193   1.156       .  T
C1189      N1191   1.157       .  T
C1190      N1192   1.157       .  T
C1195      C1196   1.410       .  A
C1195      C1200   1.413       .  A
C1196      C1197   1.419       .  A
C1196      C1201   1.449       .  S
C1197      C1198   1.415       .  A
C1197      C1204   1.445       .  S
C1198      C1199   1.409       .  A
C1199      C1200   1.401       .  A
C1199      C1202   1.448       .  S
C1200      C1203   1.454       .  S
C1201      N1208   1.157       .  T
C1202      N1207   1.156       .  T
C1203      N1205   1.157       .  T
C1204      N1206   1.157       .  T
C1209      C1210   1.417       .  A
C1209      C1214   1.422       .  A
C1210      C1211   1.426       .  A
C1210      C1215   1.446       .  S
C1211      C1212   1.413       .  A
C1211      C1218   1.446       .  S
C1212      C1213   1.400       .  A
C1213      C1214   1.406       .  A
C1213      C1216   1.453       .  S
C1214      C1217   1.443       .  S
C1215      N1222   1.157       .  T
C1216      N1221   1.157       .  T
C1217      N1219   1.155       .  T
C1218      N1220   1.157       .  T
C1223      C1224   1.409       .  A
C1223      C1228   1.441       .  A
C1224      C1225   1.397       .  A
C1224      C1229   1.430       .  S
C1225      C1226   1.398       .  A
C1225      C1232   1.440       .  S
C1226      C1227   1.397       .  A
C1227      C1228   1.412       .  A
C1227      C1230   1.445       .  S
C1228      C1231   1.446       .  S
C1229      N1236   1.151       .  T
C1230      N1235   1.157       .  T
C1231      N1233   1.158       .  T
C1232      N1234   1.153       .  T
C1237      C1238   1.405       .  A
C1237      C1242   1.417       .  A
C1238      C1239   1.412       .  A
C1238      C1243   1.442       .  S
C1239      C1240   1.409       .  A
C1239      C1246   1.444       .  S
C1240      C1241   1.404       .  A
C1241      C1242   1.408       .  A
C1241      C1244   1.452       .  S
C1242      C1245   1.436       .  S
C1243      N1250   1.157       .  T
C1244      N1249   1.157       .  T
C1245      N1247   1.154       .  T
C1246      N1248   1.155       .  T
C1251      C1252   1.449       .  A
C1251      C1256   1.440       .  A
C1252      C1253   1.412       .  A
C1252      C1257   1.445       .  S
C1253      C1254   1.395       .  A
C1253      C1260   1.458       .  S
C1254      C1255   1.404       .  A
C1255      C1256   1.422       .  A
C1255      C1258   1.454       .  S
C1256      C1259   1.439       .  S
C1257      N1264   1.157       .  T
C1258      N1263   1.157       .  T
C1259      N1261   1.157       .  T
C1260      N1262   1.157       .  T
C1265      C1266   1.416       .  A
C1265      C1270   1.416       .  A
C1266      C1267   1.440       .  A
C1266      C1271   1.448       .  S
C1267      C1268   1.423       .  A
C1267      C1274   1.447       .  S
C1268      C1269   1.411       .  A
C1269      C1270   1.418       .  A
C1269      C1272   1.449       .  S
C1270      C1273   1.434       .  S
C1271      N1278   1.157       .  T
C1272      N1277   1.156       .  T
C1273      N1275   1.152       .  T
C1274      N1276   1.157       .  T
C1279      C1280   1.424   1_655  A
C1279      C1284   1.413   1_655  A
C1280      C1281   1.411       .  A
C1280      C1285   1.452   1_455  S
C1281      C1282   1.406       .  A
C1281      C1288   1.448       .  S
C1282      C1283   1.417       .  A
C1283      C1284   1.418       .  A
C1283      C1286   1.448       .  S
C1284      C1287   1.450       .  S
C1285      N2780   1.157       .  T
C1286      N1291   1.156       .  T
C1287      N1289   1.157       .  T
C1288      N2778   1.156       .  T
N1290      C2776   1.157       .  T
N1292      C2773   1.157       .  T
C1293      C1294   1.402       .  A
C1293      C1298   1.420       .  A
C1294      C1295   1.409       .  A
C1294      C1299   1.450       .  S
C1295      C1296   1.417       .  A
C1295      C1302   1.431       .  S
C1296      C1297   1.429       .  A
C1297      C1298   1.441       .  A
C1297      C1300   1.443       .  S
C1298      C1301   1.448       .  S
C1299      N1306   1.156       .  T
C1300      N1305   1.156       .  T
C1301      N1303   1.157       .  T
C1302      N1304   1.153       .  T
C1307      C1308   1.423       .  A
C1307      C1312   1.430       .  A
C1308      C1309   1.433       .  A
C1308      C1313   1.445       .  S
C1309      C1310   1.405       .  A
C1309      C1316   1.444       .  S
C1310      C1311   1.404       .  A
C1311      C1312   1.407       .  A
C1311      C1314   1.450       .  S
C1312      C1315   1.442       .  S
C1313      N1320   1.155       .  T
C1314      N1319   1.157       .  T
C1315      N1317   1.156       .  T
C1316      N1318   1.157       .  T
C1321      C1517   1.477       .  S
C1321      C1322   1.409       .  A
C1321      C1326   1.408       .  A
C1322      C1323   1.391       .  A
C1322      C2815   1.450       .  S
C1323      C1324   1.414       .  A
C1323      C1330   1.448       .  S
C1324      C1325   1.409       .  A
C1325      C1326   1.396       .  A
C1325      C1328   1.450       .  S
C1326      C1329   1.446       .  S
C1327      C2810   1.450       .  S
C1327      N1334   1.157       .  T
C1328      N1333   1.157       .  T
C1329      N1331   1.156       .  T
C1330      N1332   1.156       .  T
C1335      C1336   1.416       .  A
C1335      C1340   1.411       .  A
C1336      C1337   1.398       .  A
C1336      C1341   1.455   1_545  S
C1337      C1338   1.406       .  A
C1337      C2832   1.448   1_554  S
C1338      C1339   1.415       .  A
C1339      C1340   1.416       .  A
C1339      C1342   1.448       .  S
C1340      C1343   1.449       .  S
C1341      N2836   1.157   1_554  T
C1342      N1347   1.157       .  T
C1343      N1345   1.157       .  T
C1344      C2825   1.447       .  S
C1344      N1346   1.156       .  T
N1348      C2829   1.157       .  T
C1349      C1354   1.422   1_556  A
C1349      C2838   1.429       .  A
C1350      C1351   1.417       .  A
C1350      C2837   1.418       .  A
C1350      C1355   1.443       .  S
C1351      C1352   1.411       .  A
C1351      C1358   1.445       .  S
C1352      C2841   1.409       .  A
C1353      C1354   1.429       .  A
C1353      C2840   1.403   1_554  A
C1353      C1356   1.439       .  S
C1354      C1357   1.438       .  S
C1355      N1362   1.157       .  T
C1356      N1361   1.155       .  T
C1357      N1359   1.153       .  T
C1358      N1360   1.155       .  T
C1363      C1364   1.435       .  A
C1363      C1368   1.425       .  A
C1364      C1365   1.416       .  A
C1364      C1369   1.446       .  S
C1365      C1366   1.397   1_455  A
C1365      C1372   1.452       .  S
C1366      C1367   1.404   1_655  A
C1367      C1368   1.409       .  A
C1367      C1370   1.453   1_455  S
C1368      C1371   1.443       .  S
C1369      N1376   1.156       .  T
C1370      N1375   1.156       .  T
C1371      N1373   1.158       .  T
C1372      N1374   1.157       .  T
C1377      C1378   1.408       .  A
C1377      C1382   1.416       .  A
C1378      C1379   1.407       .  A
C1378      C1383   1.451       .  S
C1379      C1380   1.425       .  A
C1379      C1386   1.449       .  S
C1380      C1381   1.410       .  A
C1381      C1382   1.416       .  A
C1381      C1384   1.450       .  S
C1382      C1385   1.447       .  S
C1383      N1390   1.156       .  T
C1384      N1389   1.157       .  T
C1385      N1387   1.157       .  T
C1386      N1388   1.156       .  T
C1391      C1392   1.414       .  A
C1391      C1396   1.418       .  A
C1392      C1393   1.421       .  A
C1392      C1397   1.449       .  S
C1393      C1394   1.415       .  A
C1393      C1400   1.443       .  S
C1394      C1395   1.415       .  A
C1395      C1396   1.423       .  A
C1395      C1398   1.444       .  S
C1396      C1399   1.447       .  S
C1397      N1404   1.157       .  T
C1398      N1403   1.156       .  T
C1399      N1401   1.156       .  T
C1400      N1402   1.157       .  T
C1405      C1406   1.400       .  A
C1405      C1410   1.441       .  A
C1406      C1407   1.397       .  A
C1406      C1411   1.433       .  S
C1407      C1408   1.390       .  A
C1407      C1414   1.446       .  S
C1408      C1409   1.443       .  A
C1409      C1410   1.467       .  A
C1409      C1412   1.445       .  S
C1410      C1413   1.443       .  S
C1411      N1418   1.154       .  T
C1412      N1417   1.157       .  T
C1413      N1415   1.157       .  T
C1414      N1416   1.156       .  T
C1419      C1420   1.440       .  A
C1419      C1424   1.427       .  A
C1420      C1421   1.406       .  A
C1420      C1425   1.434       .  S
C1421      C1422   1.391       .  A
C1421      C1428   1.442       .  S
C1422      C1423   1.409       .  A
C1423      C1424   1.416       .  A
C1423      C1426   1.446       .  S
C1424      C1427   1.440   1_554  S
C1425      N1432   1.152       .  T
C1426      N1431   1.157       .  T
C1427      N2917   1.156       .  T
C1428      N1430   1.152       .  T
N1429      C2915   1.157       .  T
C1433      C1434   1.433       .  A
C1433      C1438   1.420       .  A
C1434      C1435   1.424       .  A
C1434      C1439   1.437       .  S
C1435      C1436   1.401       .  A
C1435      C1442   1.445       .  S
C1436      C1437   1.386       .  A
C1437      C1438   1.400       .  A
C1437      C1440   1.440       .  S
C1438      C1441   1.430       .  S
C1439      N1446   1.154       .  T
C1440      N1445   1.154       .  T
C1441      N1443   1.154       .  T
C1442      N1444   1.157       .  T
C1447      C1448   1.405       .  A
C1447      C1452   1.407       .  A
C1448      C1449   1.406       .  A
C1448      C1453   1.455       .  S
C1449      C1450   1.427       .  A
C1449      C1456   1.443       .  S
C1450      C1451   1.419       .  A
C1451      C1452   1.415       .  A
C1451      C1454   1.442       .  S
C1452      C1455   1.450       .  S
C1453      N1460   1.157       .  T
C1454      N1459   1.156   1_554  T
C1455      N2945   1.157   1_554  T
C1456      N1458   1.157       .  T
N1457      C2943   1.157       .  T
C1461      C1462   1.416       .  A
C1461      C1466   1.425       .  A
C1462      C1463   1.416       .  A
C1462      C1467   1.450       .  S
C1463      C1464   1.416       .  A
C1463      C1470   1.453       .  S
C1464      C1465   1.412       .  A
C1465      C1466   1.410       .  A
C1465      C1468   1.455       .  S
C1466      C1469   1.448       .  S
C1467      N1474   1.157       .  T
C1468      N1473   1.157       .  T
C1469      N1471   1.156       .  T
C1470      N1472   1.157       .  T
C1475      C2964   1.406       .  A
C1475      C2968   1.425       .  A
C1476      C1477   1.390   1_556  A
C1476      C2963   1.407       .  A
C1476      C2969   1.441       .  S
C1477      C1478   1.408       .  A
C1477      C1484   1.437   1_554  S
C1478      C1479   1.422       .  A
C1479      C1480   1.446   1_554  A
C1479      C1482   1.446       .  S
C1480      C2963   1.423       .  A
C1480      C2971   1.444       .  S
C1481      C2964   1.439       .  S
C1481      N1488   1.155       .  T
C1482      N1487   1.157       .  T
C1483      C2968   1.445       .  S
C1483      N1485   1.157       .  T
C1484      N1486   1.157       .  T
C1489      H1490   1.108       .  S
C1489      C1495   1.535       .  S
C1489      C1494   1.565       .  S
C1489      C1493   1.537       .  S
C1491      H1492   1.094       .  S
C1491      C1497   1.550       .  S
C1491      C1496   1.547       .  S
C1491      C1498   1.585       .  S
C1493      C1496   1.366       .  D
C1493      C2910   1.512       .  S
C1494      C1497   1.401       .  D
C1494      C2921   1.521       .  S
C1495      C1498   1.409       .  D
C1495      C2966   1.541       .  S
C1496      C2949   1.516       .  S
C1497      C2893   1.549       .  S
C1498      C2938   1.529       .  S
O1499      C1502   1.266       .  A
O1499     Cd1504   2.470       .  S
C1500      O1509   1.266       .  A
C1500      O1505   1.267       .  A
C1500      C2879   1.506       .  S
O1501      C1507   1.260       .  A
O1501     Cd1504   2.431       .  S
C1502      O1510   1.268       .  A
C1502      C2865   1.506       .  S
C1503      O1508   1.261       .  A
C1503      O1506   1.268       .  A
C1503      C2854   1.472       .  S
Cd1504     O1511   2.496       .  S
Cd1504     O1510   2.555       .  S
Cd1504     O1509   2.518       .  S
Cd1504     O1505   2.525       .  S
Cd1504     O1508   2.429       .  S
Cd1504     O1506   2.458       .  S
C1507      O1511   1.265       .  A
C1507      C2924   1.482       .  S
C1512      H1513   1.073       .  S
C1512      C1518   1.514       .  S
C1512      C1517   1.512       .  S
C1512      C1516   1.552       .  S
C1514      C1519   1.590       .  S
C1514      C1521   1.537       .  S
C1516      C1519   1.427       .  D
C1516      C2907   1.570       .  S
C1518      C1521   1.366       .  D
C1518      C2882   1.508       .  S
C1519      C2837   1.543       .  S
C1520      C2798   1.551       .  S
C1521      C2826   1.479       .  S
O1522      C1525   1.279       .  A
O1522     Cd1527   2.551       .  S
C1523      O1532   1.262       .  A
C1523      O1528   1.278       .  A
C1523      C2963   1.516       .  S
O1524      C1530   1.265       .  A
O1524     Cd1527   2.339       .  S
C1525      O1533   1.263       .  A
C1525      C2781   1.517       .  S
C1526      O1531   1.260       .  A
C1526      O1529   1.279       .  A
C1526      C2767   1.507       .  S
Cd1527     O1534   2.376       .  S
Cd1527     O1533   2.513       .  S
Cd1527     O1532   2.455       .  S
Cd1527     O1528   2.617       .  S
Cd1527     O1531   2.386       .  S
Cd1527     O1529   2.541       .  S
C1530      O1534   1.260       .  A
C1530      C2812   1.458       .  S
C1535      H1536   1.093       .  S
C1535      C1541   1.515       .  S
C1535      C1540   1.570       .  S
C1535      C1539   1.537       .  S
C1537      H1538   1.088       .  S
C1537      C1543   1.546       .  S
C1537      C1542   1.567       .  S
C1537      C1544   1.586       .  S
C1539      C1542   1.368       .  D
C1539      C2711   1.507       .  S
C1540      C1543   1.403       .  D
C1540      C2725   1.522       .  S
C1541      C1544   1.406       .  D
C1541      C2753   1.534       .  S
C1542      C2868   1.535       .  S
C1543      C2896   1.548       .  S
C1544      C2739   1.537       .  S
O1545      C1548   1.260       .  A
O1545     Cd1550   2.481       .  S
C1546      O1555   1.259       .  A
C1546      O1551   1.276       .  A
C1546      C2952   1.486       .  S
O1547      C1553   1.263       .  A
O1547     Cd1550   2.413       .  S
C1548      O1556   1.273       .  A
C1548      C2700   1.505       .  S
C1549      O1554   1.264       .  A
C1549      O1552   1.260       .  A
C1549      C2728   1.468       .  S
Cd1550     O1557   2.522       .  S
Cd1550     O1556   2.558       .  S
Cd1550     O1555   2.402       .  S
Cd1550     O1551   2.470       .  S
Cd1550     O1554   2.380       .  S
Cd1550     O1552   2.444       .  S
C1553      O1557   1.273       .  A
C1553      C2683   1.497       .  S
C1558      H1559   1.098       .  S
C1558      C1564   1.516       .  S
C1558      C1563   1.551       .  S
C1558      C1562   1.552       .  S
C1560      H1561   1.106       .  S
C1560      C1566   1.555       .  S
C1560      C1565   1.591       .  S
C1560      C1567   1.586       .  S
C1562      C1565   1.400       .  D
C1562      C2714   1.531       .  S
C1563      C1566   1.392       .  D
C1563      C2655   1.513       .  S
C1564      C1567   1.388       .  D
C1564      C2697   1.538       .  S
C1565      C2784   1.563       .  S
C1566      C2795   1.540       .  S
C1567      C2672   1.513       .  S
O1568      C1571   1.279       .  A
O1568     Cd1573   2.607       .  S
C1569      O1578   1.268       .  A
C1569      O1574   1.277       .  A
C1569      C2756   1.538       .  S
O1570      C1576   1.264       .  A
O1570     Cd1573   2.420       .  S
C1571      O1579   1.259       .  A
C1571      C2840   1.509       .  S
C1572      O1577   1.264       .  A
C1572      O1575   1.271       .  A
C1572      C2641   1.492       .  S
Cd1573     O1580   2.474       .  S
Cd1573     O1579   2.429       .  S
Cd1573     O1578   2.510       .  S
Cd1573     O1574   2.640       .  S
Cd1573     O1577   2.409       .  S
Cd1573     O1575   2.507       .  S
C1576      O1580   1.252       .  A
C1576      C2658   1.466       .  S
C1581      H1582   1.094       .  S
C1581      C1587   1.534       .  S
C1581      C1586   1.555       .  S
C1581      C1585   1.517       .  S
C1583      H1584   1.107       .  S
C1583      C1589   1.566       .  S
C1583      C1588   1.565       .  S
C1583      C1590   1.556       .  S
C1585      C1588   1.381       .  D
C1585      C2613   1.524       .  S
C1586      C1589   1.408       .  D
C1586      C2585   1.523       .  S
C1587      C1590   1.363       .  D
C1587      C2557   1.486       .  S
C1588      C2599   1.499       .  S
C1589      C2571   1.552       .  S
C1590      C2627   1.511       .  S
O1591      C1594   1.273       .  A
O1591     Cd1596   2.620       .  S
C1592      O1601   1.257       .  A
C1592      O1597   1.277       .  A
C1592      C2543   1.484       .  S
O1593      C1599   1.263       .  A
O1593     Cd1596   2.471       .  S
C1594      O1602   1.265       .  A
C1594      C2532   1.522       .  S
C1595      O1600   1.263       .  A
C1595      O1598   1.269       .  A
C1595      C2742   1.481       .  S
Cd1596     O1603   2.376       .  S
Cd1596     O1602   2.467       .  S
Cd1596     O1601   2.405       .  S
Cd1596     O1597   2.459       .  S
Cd1596     O1600   2.399       .  S
Cd1596     O1598   2.489       .  S
C1599      O1603   1.263       .  A
C1599      C2588   1.452       .  S
C1604      H1605   1.080       .  S
C1604      C1610   1.536       .  S
C1604      C1609   1.549       .  S
C1604      C1608   1.525       .  S
C1606      H1607   1.107       .  S
C1606      C1612   1.582       .  S
C1606      C1611   1.571       .  S
C1606      C1613   1.549       .  S
C1608      C1611   1.388       .  D
C1608      C2529   1.538       .  S
C1609      C1612   1.417       .  D
C1609      C2487   1.546       .  S
C1610      C1613   1.357       .  D
C1610      C2560   1.486       .  S
C1611      C2501   1.503       .  S
C1612      C2473   1.544       .  S
C1613      C2515   1.524       .  S
O1614      C1617   1.270       .  A
O1614     Cd1619   2.617       .  S
C1615      O1624   1.275       .  A
C1615      O1620   1.261       .  A
O1616      C1622   1.266       .  A
O1616     Cd1619   2.465       .  S
C1617      O1625   1.261       .  A
C1617      C2616   1.521       .  S
C1618      O1623   1.259       .  A
C1618      O1621   1.269       .  A
C1618      C2935   1.480       .  S
Cd1619     O1626   2.398       .  S
Cd1619     O1625   2.470       .  S
Cd1619     O1624   2.456       .  S
Cd1619     O1620   2.464       .  S
Cd1619     O1623   2.369       .  S
Cd1619     O1621   2.526       .  S
C1622      O1626   1.262       .  A
C1622      C2490   1.463       .  S
C1627      H1628   1.098       .  S
C1627      C1633   1.554       .  S
C1627      C1632   1.582       .  S
C1627      C1631   1.525       .  S
C1629      H1630   1.106       .  S
C1629      C1635   1.536       .  S
C1629      C1634   1.576       .  S
C1629      C1636   1.555       .  S
C1631      C1634   1.384       .  D
C1631      C2445   1.537       .  S
C1632      C1635   1.414       .  D
C1632      C2420   1.541       .  S
C1633      C1636   1.378       .  D
C1633      C2403   1.518       .  S
C1634      C2431   1.501       .  S
C1635      C2574   1.542       .  S
C1636      C2546   1.534       .  S
O1637      C1640   1.270       .  A
O1637     Cd1642   2.583       .  S
C1638      O1647   1.260       .  A
C1638      O1643   1.272       .  A
C1638      C2630   1.486       .  S
O1639      C1645   1.267       .  A
O1639     Cd1642   2.479       .  S
C1640      O1648   1.265       .  A
C1640      C2392   1.522       .  S
C1641      O1646   1.263       .  A
C1641      O1644   1.270       .  A
C1641      C2669   1.484   1_565  S
Cd1642     O1649   2.471       .  S
Cd1642     O1648   2.533       .  S
Cd1642     O1647   2.478       .  S
Cd1642     O1643   2.494       .  S
Cd1642     O1646   2.397       .  S
Cd1642     O1644   2.504       .  S
C1645      O1649   1.260       .  A
C1645      C2417   1.488       .  S
C1650      H1651   1.080       .  S
C1650      C1656   1.544       .  S
C1650      C1655   1.554       .  S
C1650      C1654   1.500       .  S
C1652      H1653   1.106       .  S
C1652      C1658   1.550       .  S
C1652      C1657   1.596       .  S
C1652      C1659   1.580       .  S
C1654      C1657   1.398       .  D
C1654      C2389   1.548       .  S
C1655      C1658   1.379       .  D
C1655      C2361   1.488       .  S
C1656      C1659   1.394       .  D
C1656      C2406   1.530       .  S
C1657      C2375   1.511       .  S
C1659      C2462   1.556       .  S
O1660      C1663   1.259       .  A
O1660     Cd1665   2.466       .  S
C1661      O1670   1.262       .  A
C1661      O1666   1.273       .  A
C1661      C2518   1.493       .  S
O1662      C1668   1.257       .  A
O1662     Cd1665   2.482       .  S
C1663      O1671   1.272       .  A
C1664      O1669   1.261       .  A
C1664      O1667   1.269       .  A
C1664      C2823   1.473   1_565  S
Cd1665     O1672   2.474       .  S
Cd1665     O1671   2.616       .  S
Cd1665     O1670   2.489       .  S
Cd1665     O1666   2.488       .  S
Cd1665     O1669   2.365       .  S
Cd1665     O1667   2.499       .  S
C1668      O1672   1.266       .  A
C1668      C2364   1.480       .  S
C1673      H1674   1.100       .  S
C1673      C1679   1.562       .  S
C1673      C1678   1.584       .  S
C1673      C1677   1.517       .  S
C1675      H1676   1.100       .  S
C1675      C1681   1.553       .  S
C1675      C1680   1.584       .  S
C1675      C1682   1.541       .  S
C1677      C1680   1.381       .  D
C1677      C2333   1.538       .  S
C1678      C1681   1.415       .  D
C1678      C2319   1.554       .  S
C1679      C1682   1.372       .  D
C1679      C2291   1.507       .  S
C1680      C2686   1.496       .  S
C1681      C2308   1.553       .  S
C1682      C2347   1.535       .  S
O1683      C1686   1.266       .  A
O1683     Cd1688   2.533       .  S
C1684      O1693   1.267       .  A
C1684      O1689   1.264       .  A
C1684      C2277   1.486       .  S
O1685      C1691   1.259       .  A
O1685     Cd1688   2.474       .  S
C1686      O1694   1.267       .  A
C1686      C2263   1.519       .  S
C1687      O1692   1.266       .  A
C1687      O1690   1.269       .  A
C1687      C2249   1.478       .  S
Cd1688     O1695   2.469       .  S
Cd1688     O1694   2.588       .  S
Cd1688     O1693   2.538       .  S
Cd1688     O1689   2.389       .  S
Cd1688     O1692   2.410       .  S
Cd1688     O1690   2.453       .  S
C1691      O1695   1.270       .  A
C1691      C2322   1.493       .  S
C1696      H1697   1.066       .  S
C1696      C1702   1.531       .  S
C1696      C1701   1.515       .  S
C1696      C1700   1.502       .  S
C1698      H1699   1.095       .  S
C1698      C1704   1.565       .  S
C1698      C1703   1.590       .  S
C1698      C1705   1.573       .  S
C1700      C1703   1.397       .  D
C1700      C2266   1.517       .  S
C1701      C1704   1.363       .  D
C1701      C2221   1.481       .  S
C1702      C1705   1.410       .  D
C1702      C2294   1.539       .  S
C1703      C2851   1.544       .  S
C1704      C2210   1.537       .  S
C1705      C2235   1.519       .  S
O1706      C1709   1.267       .  A
O1706     Cd1711   2.548       .  S
C1707      O1716   1.261       .  A
C1707      O1712   1.278       .  A
O1708      C1714   1.256       .  A
O1708     Cd1711   2.405       .  S
C1709      O1717   1.264       .  A
C1709      C2336   1.529       .  S
C1710      O1715   1.261       .  A
C1710      O1713   1.270       .  A
C1710      C2179   1.486       .  S
Cd1711     O1718   2.481       .  S
Cd1711     O1717   2.563       .  S
Cd1711     O1716   2.418       .  S
Cd1711     O1712   2.578       .  S
Cd1711     O1715   2.402       .  S
Cd1711     O1713   2.536       .  S
C1714      O1718   1.266       .  A
C1714      C2224   1.465       .  S
C1719      H1720   1.084       .  S
C1719      C1725   1.531       .  S
C1719      C1724   1.565       .  S
C1719      C1723   1.516       .  S
C1721      H1722   1.105       .  S
C1721      C1727   1.547       .  S
C1721      C1726   1.597       .  S
C1721      C1728   1.581       .  S
C1723      C1726   1.402       .  D
C1723      C2165   1.561       .  S
C1724      C1727   1.372       .  D
C1724      C2154   1.490       .  S
C1725      C1728   1.382       .  D
C1725      C2140   1.517       .  S
C1726      C2644   1.510       .  S
C1727      C2305   1.539       .  S
C1728      C2280   1.550       .  S
O1729      C1732   1.275       .  A
O1729     Cd1734   2.566       .  S
C1730      O1739   1.258       .  A
C1730      O1735   1.276       .  A
C1730      C2350   1.514       .  S
O1731      C1737   1.267       .  A
O1731     Cd1734   2.404       .  S
C1732      O1740   1.265       .  A
C1732      C2123   1.509       .  S
C1733      O1738   1.260       .  A
C1733      O1736   1.271       .  A
C1733      C2112   1.472       .  S
Cd1734     O1741   2.431       .  S
Cd1734     O1740   2.435       .  S
Cd1734     O1739   2.455       .  S
Cd1734     O1735   2.503       .  S
Cd1734     O1738   2.340       .  S
Cd1734     O1736   2.461       .  S
C1737      O1741   1.257       .  A
C1737      C2151   1.466       .  S
C1742      H1743   1.091       .  S
C1742      C1748   1.567       .  S
C1742      C1747   1.533   1_556  S
C1742      C1746   1.532       .  S
C1744      H1745   1.098   1_556  S
C1744      C1750   1.560   1_556  S
C1744      C1749   1.546       .  S
C1744      C1751   1.554       .  S
C1746      C1749   1.372       .  D
C1746      C2126   1.521       .  S
C1747      C1750   1.388       .  D
C1747      C2095   1.527       .  S
C1748      C1751   1.406       .  D
C1748      C2137   1.535       .  S
C1749      C2770   1.502       .  S
C1751      C2193   1.538       .  S
O1752      C1755   1.271       .  A
O1752     Cd1757   2.641       .  S
C1753      O1762   1.263       .  A
C1753      O1758   1.270       .  A
C1753      C2238   1.494       .  S
O1754      C1760   1.266       .  A
O1754     Cd1757   2.440       .  S
C1755      O1763   1.263       .  A
C1756      O1761   1.272       .  A
C1756      O1759   1.258       .  A
C1756      C2081   1.501       .  S
Cd1757     O1764   2.449       .  S
Cd1757     O1763   2.509       .  S
Cd1757     O1762   2.481       .  S
Cd1757     O1758   2.495       .  S
Cd1757     O1761   2.583       .  S
Cd1757     O1759   2.433       .  S
C1760      O1764   1.263       .  A
C1760      C2098   1.472       .  S
C1765      H1766   1.095       .  S
C1765      C1771   1.520       .  S
C1765      C1770   1.546       .  S
C1765      C1769   1.526       .  S
C1767      H1768   1.101       .  S
C1767      C1772   1.599       .  S
C1767      C1774   1.580       .  S
C1769      C1772   1.392       .  D
C1769      C2014   1.520       .  S
C1771      C1774   1.381       .  D
C1771      C2053   1.515       .  S
C1772      C2067   1.551       .  S
C1773      C2025   1.535   1_554  S
C1774      C2084   1.530       .  S
O1775      C1778   1.279       .  A
O1775     Cd1780   2.579       .  S
C1776      O1785   1.271       .  A
C1776      O1781   1.276       .  A
C1776      C1983   1.521       .  S
O1777      C1783   1.264       .  A
O1777     Cd1780   2.470       .  S
C1778      O1786   1.257       .  A
C1778      C1997   1.500       .  S
C1779      O1784   1.269       .  A
C1779      O1782   1.273       .  A
C1779      C2378   1.493   1_455  S
Cd1780     O1787   2.376       .  S
Cd1780     O1786   2.408       .  S
Cd1780     O1785   2.519       .  S
Cd1780     O1781   2.543       .  S
Cd1780     O1784   2.409       .  S
Cd1780     O1782   2.491       .  S
C1783      O1787   1.260       .  A
C1783      C2042   1.472       .  S
C1788      H1789   1.081       .  S
C1788      C1794   1.518       .  S
C1788      C1793   1.571       .  S
C1788      C1792   1.551       .  S
C1790      H1791   1.111       .  S
C1790      C1796   1.555       .  S
C1790      C1795   1.561       .  S
C1790      C1797   1.571       .  S
C1792      C1795   1.388       .  D
C1792      C2011   1.555       .  S
C1793      C1796   1.407       .  D
C1793      C1958   1.518       .  S
C1794      C1797   1.372       .  D
C1794      C1986   1.518       .  S
C1795      C1969   1.506       .  S
C1796      C1941   1.545       .  S
C1797      C2182   1.490       .  S
O1798      C1801   1.268       .  A
O1798     Cd1803   2.414       .  S
C1799      O1808   1.270       .  A
C1799      O1804   1.265       .  A
C1799      C2056   1.513       .  S
O1800      C1806   1.267       .  A
O1800     Cd1803   2.503       .  S
C1801      O1809   1.267       .  A
C1801      C1930   1.501       .  S
C1802      O1807   1.264       .  A
C1802      O1805   1.271       .  A
C1802      C2504   1.489   1_455  S
Cd1803     O1810   2.425       .  S
Cd1803     O1809   2.547       .  S
Cd1803     O1808   2.585       .  S
Cd1803     O1804   2.536       .  S
Cd1803     O1807   2.412       .  S
Cd1803     O1805   2.520       .  S
C1806      O1810   1.256       .  A
C1806      C1955   1.477       .  S
C1811      H1812   1.090       .  S
C1811      C1817   1.510       .  S
C1811      C1816   1.556       .  S
C1811      C1815   1.540       .  S
C1813      H1814   1.091       .  S
C1813      C1819   1.541       .  S
C1813      C1818   1.578       .  S
C1813      C1820   1.590       .  S
C1815      C1818   1.382       .  D
C1815      C1885   1.540       .  S
C1816      C1819   1.376       .  D
C1816      C1899   1.494       .  S
C1817      C1820   1.399       .  D
C1817      C1913   1.518       .  S
C1818      C1927   1.542       .  S
C1819      C1944   1.525       .  S
C1820      C2252   1.526       .  S
O1821      C1824   1.260       .  A
O1821     Cd1826   2.459       .  S
C1822      O1831   1.267       .  A
C1822      O1827   1.270       .  A
C1822      C1874   1.512       .  S
O1823      C1829   1.267       .  A
O1823     Cd1826   2.475       .  S
C1824      O1832   1.270       .  A
C1824      C1972   1.494       .  S
C1825      O1830   1.261       .  A
C1825      O1828   1.264       .  A
C1825      C2602   1.470       .  S
Cd1826     O1833   2.442       .  S
Cd1826     O1832   2.525       .  S
Cd1826     O1831   2.517       .  S
Cd1826     O1827   2.537       .  S
Cd1826     O1830   2.408       .  S
Cd1826     O1828   2.477       .  S
C1829      O1833   1.257       .  A
C1829      C1902   1.465       .  S
C1834      H1835   1.093       .  S
C1834      C1840   1.514       .  S
C1834      C1839   1.540       .  S
C1834      C1838   1.557       .  S
C1836      H1837   1.100       .  S
C1836      C1842   1.565       .  S
C1836      C1841   1.566       .  S
C1836      C1843   1.552       .  S
C1838      C1841   1.421       .  D
C1838      C1888   1.543       .  S
C1839      C1842   1.385       .  D
C1839      C1857   1.486       .  S
C1840      C1843   1.370       .  D
C1840      C1871   1.524       .  S
C1841      C2000   1.560       .  S
C1842      C2028   1.543       .  S
C1843      C2109   1.470       .  S
O1844      C1847   1.277       .  A
O1844     Cd1849   2.545       .  S
C1845      O1854   1.266       .  A
C1845      O1850   1.273       .  A
C1845      C1916   1.527       .  S
O1846      C1852   1.263       .  A
O1846     Cd1849   2.417       .  S
C1847      O1855   1.259       .  A
C1847      C2070   1.507       .  S
C1848      O1853   1.263       .  A
C1848      O1851   1.267       .  A
C1848      C2434   1.497       .  S
Cd1849     O1856   2.465       .  S
Cd1849     O1855   2.478       .  S
Cd1849     O1854   2.560       .  S
Cd1849     O1850   2.569       .  S
Cd1849     O1853   2.431       .  S
Cd1849     O1851   2.527       .  S
C1852      O1856   1.258       .  A
C1852      C1860   1.461       .  S
C1857      C1858   1.417       .  A
C1857      C1862   1.409       .  A
C1858      C1859   1.411       .  A
C1858      C1863   1.441       .  S
C1859      C1860   1.403       .  A
C1859      C1866   1.448       .  S
C1860      C1861   1.405       .  A
C1861      C1862   1.393       .  A
C1861      C1864   1.448       .  S
C1862      C1865   1.444       .  S
C1863      N1870   1.155       .  T
C1864      N1869   1.153       .  T
C1865      N1867   1.154       .  T
C1866      N1868   1.157       .  T
C1871      C1872   1.413       .  A
C1871      C1876   1.412       .  A
C1872      C1873   1.421       .  A
C1872      C1877   1.440       .  S
C1873      C1874   1.408       .  A
C1873      C1880   1.448       .  S
C1874      C1875   1.414       .  A
C1875      C1876   1.424       .  A
C1875      C1878   1.443       .  S
C1876      C1879   1.440       .  S
C1877      N1884   1.157       .  T
C1878      N1883   1.155       .  T
C1879      N1881   1.156       .  T
C1880      N1882   1.157       .  T
C1885      C1886   1.411       .  A
C1885      C1890   1.408       .  A
C1886      C1887   1.416       .  A
C1886      C1891   1.449       .  S
C1887      C1888   1.443       .  A
C1887      C1894   1.444       .  S
C1888      C1889   1.406       .  A
C1889      C1890   1.406       .  A
C1889      C1892   1.444       .  S
C1890      C1893   1.442       .  S
C1891      N1898   1.157       .  T
C1892      N1897   1.157       .  T
C1893      N1895   1.157       .  T
C1894      N1896   1.157       .  T
C1899      C1900   1.405       .  A
C1899      C1904   1.415       .  A
C1900      C1901   1.390       .  A
C1900      C1905   1.432       .  S
C1901      C1902   1.400       .  A
C1901      C1908   1.454       .  S
C1902      C1903   1.407       .  A
C1903      C1904   1.420       .  A
C1903      C1906   1.447       .  S
C1904      C1907   1.442       .  S
C1905      N1912   1.155       .  T
C1906      N1911   1.157       .  T
C1907      N1909   1.156       .  T
C1908      N1910   1.154       .  T
C1913      C1914   1.415       .  A
C1913      C1918   1.411       .  A
C1914      C1915   1.417       .  A
C1914      C1919   1.448       .  S
C1915      C1916   1.413       .  A
C1915      C1922   1.435       .  S
C1916      C1917   1.420       .  A
C1917      C1918   1.430       .  A
C1917      C1920   1.445       .  S
C1918      C1921   1.444       .  S
C1919      N1926   1.156       .  T
C1920      N1925   1.157       .  T
C1921      N1923   1.157       .  T
C1922      N1924   1.151       .  T
C1927      C1928   1.433       .  A
C1927      C1932   1.426       .  A
C1928      C1929   1.407       .  A
C1928      C1933   1.446       .  S
C1929      C1930   1.400       .  A
C1929      C1936   1.452       .  S
C1930      C1931   1.417       .  A
C1931      C1932   1.429       .  A
C1931      C1934   1.449       .  S
C1932      C1935   1.449       .  S
C1933      N1940   1.155       .  T
C1934      N1939   1.158       .  T
C1935      N1937   1.157       .  T
C1936      N1938   1.154       .  T
C1941      C1942   1.384       .  A
C1941      C1946   1.449       .  A
C1942      C1943   1.391       .  A
C1942      C1947   1.454       .  S
C1943      C1944   1.383       .  A
C1943      C1950   1.429       .  S
C1944      C1945   1.434       .  A
C1945      C1946   1.464       .  A
C1945      C1948   1.443       .  S
C1946      C1949   1.440       .  S
C1947      N1954   1.158       .  T
C1948      N1953   1.157       .  T
C1949      N1951   1.157       .  T
C1950      N1952   1.152       .  T
C1955      C1956   1.402       .  A
C1955      C1960   1.415       .  A
C1956      C1957   1.403       .  A
C1956      C1961   1.447       .  S
C1957      C1958   1.415       .  A
C1957      C1964   1.440       .  S
C1958      C1959   1.399       .  A
C1959      C1960   1.414       .  A
C1959      C1962   1.442       .  S
C1960      C1963   1.446       .  S
C1961      N1968   1.157       .  T
C1962      N1967   1.156       .  T
C1963      N1965   1.156       .  T
C1964      N1966   1.155       .  T
C1969      C1970   1.417       .  A
C1969      C1974   1.412       .  A
C1970      C1971   1.408       .  A
C1970      C1975   1.458       .  S
C1971      C1972   1.407       .  A
C1971      C1978   1.442       .  S
C1972      C1973   1.415       .  A
C1973      C1974   1.418       .  A
C1973      C1976   1.450       .  S
C1974      C1977   1.444       .  S
C1975      N1982   1.158       .  T
C1976      N1981   1.157       .  T
C1977      N1979   1.155       .  T
C1978      N1980   1.154       .  T
C1983      C1988   1.414   1_556  A
C1984      C1985   1.423       .  A
C1984      C1989   1.451       .  S
C1985      C1986   1.422       .  A
C1985      C1992   1.443       .  S
C1986      C1987   1.413       .  A
C1987      C1990   1.448       .  S
C1988      C1991   1.436   1_554  S
C1989      N1996   1.157       .  T
C1990      N1995   1.157       .  T
C1991      N1993   1.153       .  T
C1992      N1994   1.157       .  T
C1997      C1998   1.401       .  A
C1997      C2002   1.412       .  A
C1998      C1999   1.422       .  A
C1998      C2003   1.447       .  S
C1999      C2000   1.414       .  A
C1999      C2006   1.446       .  S
C2000      C2001   1.426       .  A
C2001      C2002   1.423       .  A
C2001      C2004   1.436       .  S
C2002      C2005   1.451       .  S
C2003      N2010   1.158       .  T
C2004      N2009   1.155       .  T
C2005      N2007   1.157       .  T
C2006      N2008   1.157       .  T
C2011      C2012   1.433       .  A
C2011      C2016   1.412       .  A
C2012      C2013   1.428       .  A
C2012      C2017   1.443       .  S
C2013      C2014   1.445       .  A
C2013      C2020   1.437       .  S
C2014      C2015   1.416       .  A
C2015      C2016   1.387       .  A
C2015      C2018   1.442       .  S
C2016      C2019   1.451       .  S
C2017      N2024   1.157       .  T
C2018      N2023   1.157       .  T
C2019      N2021   1.155       .  T
C2025      C2026   1.427       .  A
C2025      C2030   1.426       .  A
C2026      C2027   1.405       .  A
C2026      C2031   1.442       .  S
C2027      C2028   1.402       .  A
C2027      C2034   1.446       .  S
C2028      C2029   1.408       .  A
C2029      C2030   1.427       .  A
C2029      C2032   1.448       .  S
C2030      C2033   1.444       .  S
C2031      N2038   1.155       .  T
C2032      N2037   1.157       .  T
C2033      N2035   1.156       .  T
C2034      N2036   1.157       .  T
C2039      C2040   1.415       .  A
C2040      C2041   1.396       .  A
C2040      C2045   1.443       .  S
C2041      C2042   1.410       .  A
C2041      C2048   1.455       .  S
C2042      C2043   1.404       .  A
C2044      C2047   1.443       .  S
C2045      N2052   1.155       .  T
C2046      N2051   1.157       .  T
C2047      N2049   1.156       .  T
C2048      N2050   1.157       .  T
C2053      C2054   1.416       .  A
C2053      C2058   1.413       .  A
C2054      C2055   1.416       .  A
C2054      C2059   1.444       .  S
C2055      C2056   1.404       .  A
C2055      C2062   1.439       .  S
C2056      C2057   1.412       .  A
C2057      C2058   1.429       .  A
C2057      C2060   1.444       .  S
C2058      C2061   1.444       .  S
C2059      N2066   1.156       .  T
C2060      N2065   1.157       .  T
C2061      N2063   1.157       .  T
C2062      N2064   1.152       .  T
C2067      C2068   1.425       .  A
C2067      C2072   1.435       .  A
C2068      C2073   1.449       .  S
C2069      C2070   1.415   1_554  A
C2069      C2076   1.448       .  S
C2071      C2072   1.413       .  A
C2071      C2074   1.453       .  S
C2072      C2075   1.441       .  S
C2073      N2080   1.157       .  T
C2075      N2077   1.155       .  T
C2076      N2078   1.157   1_554  T
C2081      C2082   1.412   1_545  A
C2081      C2086   1.413   1_545  A
C2082      C2083   1.412       .  A
C2082      C2087   1.455   1_565  S
C2083      C2084   1.417       .  A
C2084      C2085   1.417       .  A
C2085      C2086   1.424       .  A
C2085      C2088   1.443       .  S
C2086      C2089   1.448   1_565  S
C2088      N2093   1.157       .  T
C2089      N2091   1.157       .  T
C2090      N2092   1.156   1_554  T
C2095      C2096   1.432       .  A
C2096      C2101   1.442   1_554  S
C2097      C2098   1.394       .  A
C2098      C2099   1.407       .  A
C2099      C2100   1.417       .  A
C2099      C2102   1.449       .  S
C2100      C2103   1.447       .  S
C2101      N2108   1.156       .  T
C2102      N2107   1.157       .  T
C2103      N2105   1.157       .  T
C2104      N2106   1.158       .  T
C2109      C2110   1.406       .  A
C2109      C2114   1.411       .  A
C2110      C2111   1.399   1_565  A
C2110      C2115   1.453       .  S
C2111      C2112   1.419       .  A
C2111      C2118   1.454       .  S
C2112      C2113   1.406   1_545  A
C2113      C2114   1.408       .  A
C2113      C2116   1.450       .  S
C2114      C2117   1.443       .  S
C2115      N2122   1.157       .  T
C2116      N2121   1.157       .  T
C2117      N2119   1.155       .  T
C2118      N2120   1.157       .  T
C2123      C2124   1.413       .  A
C2123      C2128   1.415       .  A
C2124      C2125   1.417       .  A
C2124      C2129   1.452       .  S
C2125      C2126   1.419       .  A
C2125      C2132   1.448       .  S
C2126      C2127   1.422       .  A
C2127      C2128   1.426       .  A
C2127      C2130   1.445       .  S
C2128      C2131   1.449       .  S
C2129      N2136   1.157       .  T
C2130      N2135   1.156       .  T
C2131      N2133   1.157       .  T
C2132      N2134   1.157       .  T
C2137      C2138   1.432       .  A
C2137      C2142   1.424       .  A
C2138      C2139   1.421       .  A
C2138      C2143   1.444   1_556  S
C2139      C2140   1.413       .  A
C2139      C2146   1.448       .  S
C2140      C2141   1.404       .  A
C2141      C2142   1.400       .  A
C2141      C2144   1.447       .  S
C2142      C2145   1.438       .  S
C2144      N2149   1.157       .  T
C2145      N2147   1.152       .  T
C2146      N2148   1.156       .  T
C2151      C2152   1.408       .  A
C2151      C2156   1.406       .  A
C2152      C2153   1.398       .  A
C2152      C2157   1.452       .  S
C2153      C2154   1.404       .  A
C2153      C2160   1.439       .  S
C2154      C2155   1.409       .  A
C2155      C2156   1.412       .  A
C2155      C2158   1.443       .  S
C2156      C2159   1.448       .  S
C2157      N2164   1.157       .  T
C2158      N2163   1.157       .  T
C2159      N2161   1.157       .  T
C2160      N2162   1.155       .  T
C2165      C2166   1.429       .  A
C2165      C2170   1.433       .  A
C2166      C2167   1.437   1_556  A
C2166      C2171   1.439       .  S
C2167      C2168   1.414       .  A
C2168      C2169   1.405   1_554  A
C2169      C2170   1.421       .  A
C2169      C2172   1.453       .  S
C2170      C2173   1.444       .  S
C2171      N2178   1.155   1_556  T
C2172      N2177   1.157       .  T
C2173      N2175   1.155       .  T
C2174      N2176   1.157       .  T
C2179      C2180   1.410       .  A
C2179      C2184   1.412       .  A
C2180      C2181   1.421       .  A
C2180      C2185   1.448       .  S
C2181      C2182   1.417       .  A
C2181      C2188   1.445       .  S
C2182      C2183   1.407       .  A
C2183      C2184   1.398       .  A
C2183      C2186   1.453       .  S
C2184      C2187   1.446       .  S
C2185      N2192   1.157       .  T
C2186      N2191   1.158       .  T
C2187      N2189   1.153       .  T
C2188      N2190   1.157       .  T
C2193      C2194   1.421       .  A
C2194      C2195   1.424       .  A
C2194      C2199   1.438       .  S
C2195      C2196   1.404   1_556  A
C2195      C2202   1.438       .  S
C2197      C2198   1.413       .  A
C2197      C2200   1.448       .  S
C2198      C2201   1.446       .  S
C2199      N2206   1.153       .  T
C2200      N2205   1.155       .  T
C2201      N2203   1.158       .  T
C2202      N2204   1.154       .  T
C2207      C2208   1.407       .  A
C2207      C2212   1.423       .  A
C2208      C2209   1.408       .  A
C2208      C2213   1.442       .  S
C2209      C2210   1.421       .  A
C2209      C2216   1.438       .  S
C2210      C2211   1.421       .  A
C2211      C2212   1.432       .  A
C2211      C2214   1.449       .  S
C2212      C2215   1.447       .  S
C2213      N2220   1.155       .  T
C2214      N2219   1.157       .  T
C2215      N2217   1.157       .  T
C2216      N2218   1.157       .  T
C2221      C2222   1.406       .  A
C2221      C2226   1.419       .  A
C2222      C2223   1.413       .  A
C2222      C2227   1.448       .  S
C2223      C2224   1.411       .  A
C2223      C2230   1.446       .  S
C2224      C2225   1.399       .  A
C2225      C2226   1.395       .  A
C2225      C2228   1.450       .  S
C2226      C2229   1.450       .  S
C2227      N2234   1.157       .  T
C2228      N2233   1.154       .  T
C2229      N2231   1.156       .  T
C2230      N2232   1.157       .  T
C2235      C2236   1.418       .  A
C2235      C2240   1.395       .  A
C2236      C2237   1.429       .  A
C2236      C2241   1.447       .  S
C2237      C2238   1.422       .  A
C2237      C2244   1.447       .  S
C2238      C2239   1.415       .  A
C2239      C2240   1.397       .  A
C2239      C2242   1.449       .  S
C2240      C2243   1.437       .  S
C2241      N2248   1.158       .  T
C2242      N2247   1.157       .  T
C2243      N2245   1.155       .  T
C2244      N2246   1.157       .  T
C2249      C2250   1.407       .  A
C2249      C2254   1.407       .  A
C2250      C2251   1.411       .  A
C2250      C2255   1.453       .  S
C2251      C2252   1.424       .  A
C2251      C2258   1.444       .  S
C2252      C2253   1.416       .  A
C2253      C2254   1.408       .  A
C2253      C2256   1.444       .  S
C2254      C2257   1.451       .  S
C2255      N2262   1.157       .  T
C2256      N2261   1.157       .  T
C2257      N2259   1.157       .  T
C2258      N2260   1.157       .  T
C2263      C2264   1.416       .  A
C2263      C2268   1.414       .  A
C2264      C2265   1.425       .  A
C2264      C2269   1.448       .  S
C2265      C2266   1.419       .  A
C2265      C2272   1.446       .  S
C2266      C2267   1.413       .  A
C2267      C2268   1.422       .  A
C2267      C2270   1.447       .  S
C2268      C2271   1.442       .  S
C2269      N2276   1.157       .  T
C2270      N2275   1.157       .  T
C2271      N2273   1.155       .  T
C2272      N2274   1.157       .  T
C2277      C2278   1.386       .  A
C2277      C2282   1.405       .  A
C2278      C2279   1.408       .  A
C2278      C2283   1.461       .  S
C2279      C2280   1.435       .  A
C2279      C2286   1.425       .  S
C2280      C2281   1.427       .  A
C2281      C2282   1.430       .  A
C2281      C2284   1.442       .  S
C2282      C2285   1.450       .  S
C2283      N2290   1.156       .  T
C2284      N2289   1.155       .  T
C2285      N2287   1.157       .  T
C2286      N2288   1.150       .  T
C2291      C2292   1.399       .  A
C2291      C2296   1.420       .  A
C2292      C2293   1.405       .  A
C2292      C2297   1.439       .  S
C2293      C2294   1.443       .  A
C2293      C2300   1.450       .  S
C2294      C2295   1.402       .  A
C2295      C2296   1.403       .  A
C2295      C2298   1.439       .  S
C2296      C2299   1.446       .  S
C2297      N2304   1.148       .  T
C2298      N2303   1.156       .  T
C2299      N2301   1.157       .  T
C2300      N2302   1.159       .  T
C2305      C2306   1.401       .  A
C2305      C2310   1.411       .  A
C2306      C2307   1.413       .  A
C2306      C2311   1.435       .  S
C2307      C2308   1.423       .  A
C2307      C2314   1.436       .  S
C2308      C2309   1.437       .  A
C2309      C2310   1.434       .  A
C2309      C2312   1.448       .  S
C2310      C2313   1.445       .  S
C2311      N2318   1.155       .  T
C2312      N2317   1.157       .  T
C2313      N2315   1.156       .  T
C2314      N2316   1.154       .  T
C2319      C2320   1.421       .  A
C2319      C2324   1.428       .  A
C2320      C2321   1.424       .  A
C2320      C2325   1.444       .  S
C2321      C2322   1.413       .  A
C2321      C2328   1.446       .  S
C2322      C2323   1.396       .  A
C2323      C2324   1.410       .  A
C2323      C2326   1.453       .  S
C2324      C2327   1.433       .  S
C2325      N2332   1.157       .  T
C2326      N2331   1.157       .  T
C2327      N2329   1.154       .  T
C2328      N2330   1.157       .  T
C2333      C2334   1.423       .  A
C2333      C2338   1.420       .  A
C2334      C2335   1.433       .  A
C2334      C2339   1.444       .  S
C2335      C2336   1.416       .  A
C2335      C2342   1.450       .  S
C2336      C2337   1.414       .  A
C2337      C2338   1.423       .  A
C2337      C2340   1.448       .  S
C2338      C2341   1.440       .  S
C2339      N2346   1.157       .  T
C2340      N2345   1.156       .  T
C2341      N2343   1.155       .  T
C2342      N2344   1.157       .  T
C2347      C2348   1.420       .  A
C2347      C2352   1.425       .  A
C2348      C2349   1.425       .  A
C2348      C2353   1.448       .  S
C2349      C2350   1.423       .  A
C2349      C2356   1.451       .  S
C2350      C2351   1.408       .  A
C2351      C2352   1.409       .  A
C2351      C2354   1.451       .  S
C2352      C2355   1.443       .  S
C2353      N2360   1.157       .  T
C2354      N2359   1.155       .  T
C2355      N2357   1.155       .  T
C2356      N2358   1.157       .  T
C2361      C2362   1.416   1_556  A
C2362      C2367   1.443       .  S
C2363      C2364   1.416       .  A
C2363      C2370   1.447       .  S
C2364      C2365   1.400       .  A
C2365      C2366   1.393       .  A
C2365      C2368   1.446       .  S
C2366      C2369   1.431       .  S
C2367      N2374   1.157       .  T
C2368      N2373   1.158       .  T
C2369      N2371   1.155       .  T
C2370      N2372   1.157       .  T
C2375      C2376   1.415       .  A
C2375      C2380   1.420       .  A
C2376      C2377   1.409       .  A
C2376      C2381   1.442       .  S
C2377      C2378   1.412       .  A
C2377      C2384   1.455   1_655  S
C2378      C2379   1.408       .  A
C2379      C2380   1.422       .  A
C2379      C2382   1.450       .  S
C2380      C2383   1.443       .  S
C2381      N2388   1.154       .  T
C2382      N2387   1.157       .  T
C2383      N2385   1.157       .  T
C2384      N2386   1.157       .  T
C2389      C2390   1.425       .  A
C2389      C2394   1.437       .  A
C2390      C2391   1.429       .  A
C2390      C2395   1.438       .  S
C2391      C2392   1.410       .  A
C2391      C2398   1.450       .  S
C2392      C2393   1.409       .  A
C2393      C2394   1.429       .  A
C2393      C2396   1.453       .  S
C2394      C2397   1.445       .  S
C2395      N2402   1.154       .  T
C2396      N2401   1.157       .  T
C2397      N2399   1.156       .  T
C2398      N2400   1.157       .  T
C2403      C2404   1.416       .  A
C2403      C2408   1.417       .  A
C2404      C2405   1.415       .  A
C2404      C2409   1.438       .  S
C2405      C2406   1.430       .  A
C2405      C2412   1.448       .  S
C2406      C2407   1.413       .  A
C2407      C2408   1.398       .  A
C2407      C2410   1.448       .  S
C2408      C2411   1.448       .  S
C2409      N2416   1.152       .  T
C2410      N2415   1.157       .  T
C2411      N2413   1.158       .  T
C2412      N2414   1.159       .  T
C2417      C2418   1.405       .  A
C2417      C2422   1.396       .  A
C2418      C2419   1.420       .  A
C2418      C2423   1.446       .  S
C2419      C2420   1.417       .  A
C2419      C2426   1.444       .  S
C2420      C2421   1.430       .  A
C2421      C2422   1.411       .  A
C2421      C2424   1.439       .  S
C2422      C2425   1.452       .  S
C2423      N2430   1.158       .  T
C2424      N2429   1.155       .  T
C2425      N2427   1.157       .  T
C2426      N2428   1.158       .  T
C2431      C2432   1.419       .  A
C2431      C2436   1.411       .  A
C2432      C2433   1.423       .  A
C2432      C2437   1.445       .  S
C2433      C2434   1.411       .  A
C2433      C2440   1.449       .  S
C2434      C2435   1.415       .  A
C2435      C2436   1.406       .  A
C2435      C2438   1.450       .  S
C2436      C2439   1.449       .  S
C2437      N2444   1.157       .  T
C2438      N2443   1.155       .  T
C2439      N2441   1.156       .  T
C2440      N2442   1.157       .  T
C2445      C2446   1.425       .  A
C2445      C2450   1.416       .  A
C2446      C2447   1.435       .  A
C2446      C2451   1.444       .  S
C2447      C2448   1.415       .  A
C2447      C2454   1.450       .  S
C2448      C2449   1.414       .  A
C2449      C2450   1.421       .  A
C2450      C2453   1.439       .  S
C2451      N2458   1.157       .  T
C2452      N2457   1.156       .  T
C2453      N2455   1.154       .  T
C2454      N2456   1.158       .  T
C2459      C2460   1.395       .  A
C2460      C2461   1.400       .  A
C2460      C2465   1.461   1_556  S
C2461      C2462   1.435       .  A
C2461      C2468   1.430       .  S
C2463      C2464   1.430       .  A
C2463      C2466   1.442       .  S
C2464      C2467   1.450       .  S
C2465      N2472   1.157       .  T
C2466      N2471   1.155       .  T
C2467      N2469   1.157       .  T
C2468      N2470   1.152       .  T
C2473      C2474   1.435       .  A
C2473      C2478   1.423       .  A
C2474      C2475   1.434       .  A
C2474      C2479   1.445       .  S
C2475      C2476   1.412       .  A
C2475      C2482   1.445       .  S
C2476      C2477   1.400       .  A
C2477      C2478   1.407       .  A
C2477      C2480   1.435       .  S
C2478      C2481   1.439       .  S
C2479      N2486   1.156       .  T
C2480      N2485   1.154       .  T
C2481      N2483   1.156       .  T
C2482      N2484   1.157       .  T
C2487      C2488   1.426       .  A
C2487      C2492   1.435       .  A
C2488      C2489   1.421       .  A
C2488      C2493   1.447       .  S
C2489      C2490   1.406       .  A
C2489      C2496   1.446       .  S
C2490      C2491   1.392       .  A
C2491      C2492   1.397       .  A
C2491      C2494   1.455       .  S
C2492      C2495   1.443       .  S
C2493      N2500   1.157       .  T
C2494      N2499   1.157       .  T
C2495      N2497   1.157       .  T
C2496      N2498   1.157       .  T
C2501      C2502   1.410       .  A
C2501      C2506   1.422       .  A
C2502      C2503   1.408       .  A
C2502      C2507   1.444       .  S
C2503      C2504   1.412       .  A
C2503      C2510   1.450   1_655  S
C2504      C2505   1.404       .  A
C2505      C2506   1.419       .  A
C2505      C2508   1.450       .  S
C2506      C2509   1.442       .  S
C2507      N2514   1.155       .  T
C2508      N2513   1.157       .  T
C2509      N2511   1.155       .  T
C2510      N2512   1.155       .  T
C2515      C2516   1.402       .  A
C2515      C2520   1.429       .  A
C2516      C2517   1.401       .  A
C2516      C2521   1.426       .  S
C2517      C2518   1.401       .  A
C2517      C2524   1.438       .  S
C2518      C2519   1.406       .  A
C2519      C2520   1.424       .  A
C2519      C2522   1.442       .  S
C2520      C2523   1.442       .  S
C2521      N2528   1.151       .  T
C2522      N2527   1.157       .  T
C2523      N2525   1.157       .  T
C2524      N2526   1.152       .  T
C2529      C2530   1.417       .  A
C2529      C2534   1.425       .  A
C2530      C2531   1.437       .  A
C2530      C2535   1.446       .  S
C2531      C2532   1.420       .  A
C2531      C2538   1.445       .  S
C2532      C2533   1.408       .  A
C2533      C2534   1.417       .  A
C2533      C2536   1.455       .  S
C2534      C2537   1.441       .  S
C2535      N2542   1.157       .  T
C2536      N2541   1.157       .  T
C2537      N2539   1.156       .  T
C2538      N2540   1.157       .  T
C2543      C2544   1.403       .  A
C2543      C2548   1.411       .  A
C2544      C2545   1.406       .  A
C2544      C2549   1.460       .  S
C2545      C2546   1.437       .  A
C2545      C2552   1.443       .  S
C2546      C2547   1.423       .  A
C2547      C2548   1.419       .  A
C2547      C2550   1.446       .  S
C2548      C2551   1.451       .  S
C2549      N2556   1.157       .  T
C2550      N2555   1.157       .  T
C2551      N2553   1.157       .  T
C2552      N2554   1.156       .  T
C2557      C2558   1.401       .  A
C2557      C2562   1.411       .  A
C2558      C2559   1.406       .  A
C2558      C2563   1.448       .  S
C2559      C2560   1.415       .  A
C2559      C2566   1.434       .  S
C2560      C2561   1.397       .  A
C2561      C2562   1.399       .  A
C2561      C2564   1.450       .  S
C2562      C2565   1.429       .  S
C2563      N2570   1.155       .  T
C2564      N2569   1.155       .  T
C2565      N2567   1.149       .  T
C2566      N2568   1.152       .  T
C2571      C2572   1.424       .  A
C2571      C2576   1.417       .  A
C2572      C2573   1.436       .  A
C2572      C2577   1.446       .  S
C2573      C2574   1.424       .  A
C2573      C2580   1.442       .  S
C2574      C2575   1.399       .  A
C2575      C2576   1.418       .  A
C2575      C2578   1.430       .  S
C2576      C2579   1.433       .  S
C2577      N2584   1.156       .  T
C2578      N2583   1.155       .  T
C2579      N2581   1.157       .  T
C2580      N2582   1.156       .  T
C2585      C2586   1.445       .  A
C2585      C2590   1.426       .  A
C2586      C2587   1.399       .  A
C2586      C2591   1.443       .  S
C2587      C2588   1.381       .  A
C2587      C2594   1.456       .  S
C2588      C2589   1.399       .  A
C2589      C2590   1.411       .  A
C2589      C2592   1.447       .  S
C2590      C2593   1.445       .  S
C2591      N2598   1.156       .  T
C2592      N2597   1.157       .  T
C2593      N2595   1.157       .  T
C2594      N2596   1.157       .  T
C2599      C2600   1.415       .  A
C2599      C2604   1.423       .  A
C2600      C2601   1.409       .  A
C2600      C2605   1.446       .  S
C2601      C2602   1.410       .  A
C2601      C2608   1.454       .  S
C2602      C2603   1.397       .  A
C2603      C2604   1.409       .  A
C2603      C2606   1.451       .  S
C2604      C2607   1.444       .  S
C2605      N2612   1.156       .  T
C2606      N2611   1.157       .  T
C2607      N2609   1.155       .  T
C2608      N2610   1.157       .  T
C2613      C2614   1.414       .  A
C2613      C2618   1.420       .  A
C2614      C2615   1.432       .  A
C2614      C2619   1.447       .  S
C2615      C2616   1.422       .  A
C2615      C2622   1.447       .  S
C2616      C2617   1.415       .  A
C2617      C2618   1.414       .  A
C2617      C2620   1.453       .  S
C2618      C2621   1.447       .  S
C2619      N2626   1.157       .  T
C2620      N2625   1.157       .  T
C2621      N2623   1.156       .  T
C2622      N2624   1.157       .  T
C2627      C2628   1.390       .  A
C2627      C2632   1.423       .  A
C2628      C2629   1.394       .  A
C2628      C2633   1.428       .  S
C2629      C2630   1.402       .  A
C2629      C2636   1.441       .  S
C2630      C2631   1.413       .  A
C2631      C2632   1.424       .  A
C2631      C2634   1.442       .  S
C2632      C2635   1.443       .  S
C2633      N2640   1.154       .  T
C2634      N2639   1.157       .  T
C2635      N2637   1.157       .  T
C2636      N2638   1.156       .  T
C2641      C2642   1.408       .  A
C2641      C2646   1.415       .  A
C2642      C2643   1.419       .  A
C2642      C2647   1.449       .  S
C2643      C2644   1.419       .  A
C2643      C2650   1.444       .  S
C2644      C2645   1.416       .  A
C2645      C2646   1.409       .  A
C2645      C2648   1.445       .  S
C2646      C2649   1.456       .  S
C2647      N2654   1.157       .  T
C2648      N2653   1.155       .  T
C2649      N2651   1.157       .  T
C2650      N2652   1.157       .  T
C2655      C2656   1.422       .  A
C2655      C2660   1.430       .  A
C2656      C2657   1.380       .  A
C2656      C2661   1.431       .  S
C2657      C2658   1.387       .  A
C2657      C2664   1.457       .  S
C2658      C2659   1.403       .  A
C2659      C2660   1.426       .  A
C2659      C2662   1.448       .  S
C2660      C2663   1.442       .  S
C2661      N2668   1.153       .  T
C2662      N2667   1.157       .  T
C2663      N2665   1.156       .  T
C2664      N2666   1.156       .  T
C2669      C2670   1.411       .  A
C2669      C2674   1.405       .  A
C2670      C2671   1.410       .  A
C2670      C2675   1.457       .  S
C2671      C2672   1.421       .  A
C2671      C2678   1.445       .  S
C2672      C2673   1.417       .  A
C2673      C2674   1.416       .  A
C2673      C2676   1.440       .  S
C2674      C2677   1.450       .  S
C2675      N2682   1.158   1_545  T
C2676      N2681   1.154       .  T
C2677      N2679   1.157       .  T
C2678      N2680   1.156       .  T
C2683      C2684   1.413       .  A
C2683      C2688   1.419       .  A
C2684      C2685   1.420       .  A
C2684      C2689   1.449       .  S
C2685      C2686   1.414       .  A
C2685      C2692   1.446       .  S
C2686      C2687   1.409       .  A
C2687      C2688   1.407       .  A
C2687      C2690   1.451       .  S
C2688      C2691   1.453       .  S
C2689      N2696   1.157       .  T
C2690      N2695   1.157       .  T
C2691      N2693   1.157       .  T
C2692      N2694   1.156       .  T
C2697      C2698   1.423       .  A
C2697      C2702   1.431       .  A
C2698      C2699   1.429       .  A
C2698      C2703   1.446       .  S
C2699      C2700   1.414       .  A
C2699      C2706   1.446       .  S
C2700      C2701   1.401       .  A
C2701      C2702   1.414       .  A
C2701      C2704   1.456       .  S
C2702      C2705   1.439       .  S
C2703      N2710   1.156       .  T
C2704      N2709   1.157       .  T
C2705      N2707   1.154       .  T
C2706      N2708   1.156       .  T
C2711      C2712   1.397       .  A
C2711      C2716   1.413       .  A
C2712      C2713   1.391       .  A
C2712      C2717   1.439       .  S
C2713      C2714   1.417       .  A
C2713      C2720   1.442       .  S
C2714      C2715   1.406       .  A
C2715      C2716   1.407       .  A
C2715      C2718   1.441       .  S
C2716      C2719   1.442       .  S
C2717      N2724   1.157       .  T
C2718      N2723   1.157       .  T
C2719      N2721   1.157       .  T
C2720      N2722   1.155       .  T
C2725      C2726   1.405       .  A
C2725      C2730   1.416       .  A
C2726      C2727   1.413       .  A
C2726      C2731   1.444       .  S
C2727      C2728   1.416       .  A
C2727      C2734   1.448       .  S
C2728      C2729   1.403       .  A
C2729      C2730   1.395       .  A
C2729      C2732   1.454       .  S
C2730      C2733   1.442       .  S
C2731      N2738   1.157       .  T
C2732      N2737   1.158       .  T
C2733      N2735   1.156       .  T
C2734      N2736   1.157       .  T
C2739      C2740   1.440       .  A
C2739      C2744   1.420       .  A
C2740      C2741   1.416       .  A
C2740      C2745   1.443       .  S
C2741      C2742   1.397       .  A
C2741      C2748   1.455       .  S
C2742      C2743   1.407       .  A
C2743      C2744   1.412       .  A
C2743      C2746   1.453       .  S
C2744      C2747   1.445       .  S
C2745      N2752   1.158       .  T
C2746      N2751   1.157       .  T
C2747      N2749   1.156       .  T
C2748      N2750   1.157       .  T
C2753      C2754   1.423       .  A
C2753      C2758   1.415       .  A
C2754      C2755   1.425       .  A
C2754      C2759   1.452       .  S
C2755      C2756   1.418       .  A
C2755      C2762   1.452       .  S
C2756      C2757   1.424       .  A
C2757      C2758   1.435       .  A
C2757      C2760   1.445       .  S
C2758      C2761   1.446       .  S
C2759      N2766   1.158       .  T
C2760      N2765   1.157       .  T
C2761      N2763   1.157       .  T
C2762      N2764   1.157       .  T
C2767      C2768   1.426       .  A
C2767      C2772   1.412   1_655  A
C2768      C2769   1.413   1_655  A
C2768      C2773   1.451       .  S
C2769      C2770   1.408       .  A
C2769      C2776   1.451       .  S
C2770      C2771   1.418       .  A
C2771      C2772   1.418       .  A
C2771      C2774   1.447       .  S
C2772      C2775   1.451       .  S
C2774      N2779   1.156       .  T
C2775      N2777   1.157       .  T
C2781      C2782   1.402       .  A
C2781      C2786   1.422       .  A
C2782      C2783   1.403       .  A
C2782      C2787   1.449       .  S
C2783      C2784   1.402       .  A
C2783      C2790   1.415       .  S
C2784      C2785   1.432       .  A
C2785      C2786   1.446       .  A
C2785      C2788   1.440       .  S
C2786      C2789   1.448       .  S
C2787      N2794   1.157       .  T
C2788      N2793   1.156       .  T
C2789      N2791   1.157       .  T
C2790      N2792   1.147       .  T
C2795      C2796   1.422       .  A
C2795      C2800   1.421       .  A
C2796      C2797   1.436       .  A
C2796      C2801   1.443       .  S
C2797      C2798   1.407       .  A
C2797      C2804   1.446       .  S
C2798      C2799   1.419       .  A
C2799      C2800   1.413       .  A
C2799      C2802   1.449       .  S
C2800      C2803   1.445       .  S
C2801      N2808   1.157       .  T
C2802      N2807   1.157       .  T
C2803      N2805   1.157       .  T
C2804      N2806   1.158       .  T
C2809      C2810   1.411       .  A
C2809      C2814   1.407       .  A
C2810      C2811   1.396       .  A
C2811      C2812   1.412       .  A
C2811      C2818   1.449       .  S
C2812      C2813   1.403       .  A
C2813      C2814   1.385       .  A
C2813      C2816   1.452       .  S
C2814      C2817   1.444       .  S
C2815      N2822   1.158       .  T
C2816      N2821   1.157       .  T
C2817      N2819   1.156   1_556  T
C2818      N2820   1.157       .  T
C2823      C2824   1.411       .  A
C2823      C2828   1.411       .  A
C2824      C2825   1.393       .  A
C2824      C2829   1.455   1_545  S
C2825      C2826   1.405       .  A
C2826      C2827   1.413       .  A
C2827      C2828   1.417       .  A
C2827      C2830   1.449       .  S
C2828      C2831   1.448       .  S
C2830      N2835   1.157       .  T
C2831      N2833   1.157       .  T
C2832      N2834   1.156       .  T
C2837      C2842   1.411       .  A
C2838      C2839   1.414       .  A
C2838      C2843   1.439       .  S
C2839      C2840   1.405       .  A
C2839      C2846   1.450       .  S
C2841      C2842   1.427       .  A
C2841      C2844   1.438       .  S
C2842      C2845   1.432       .  S
C2843      N2850   1.155       .  T
C2844      N2849   1.155       .  T
C2845      N2847   1.151       .  T
C2846      N2848   1.156       .  T
C2851      C2852   1.438       .  A
C2851      C2856   1.430       .  A
C2852      C2853   1.415       .  A
C2852      C2857   1.446       .  S
C2853      C2854   1.395   1_455  A
C2853      C2860   1.452       .  S
C2854      C2855   1.401       .  A
C2855      C2856   1.407   1_655  A
C2855      C2858   1.454       .  S
C2856      C2859   1.443       .  S
C2857      N2864   1.157       .  T
C2858      N2863   1.156       .  T
C2859      N2861   1.159       .  T
C2860      N2862   1.157       .  T
C2865      C2866   1.404       .  A
C2865      C2870   1.413       .  A
C2866      C2867   1.411       .  A
C2866      C2871   1.448       .  S
C2867      C2868   1.430       .  A
C2867      C2874   1.449       .  S
C2868      C2869   1.423       .  A
C2869      C2870   1.424       .  A
C2869      C2872   1.445       .  S
C2870      C2873   1.449       .  S
C2871      N2878   1.156       .  T
C2872      N2877   1.158       .  T
C2873      N2875   1.157       .  T
C2874      N2876   1.156       .  T
C2879      C2880   1.412       .  A
C2879      C2884   1.415       .  A
C2880      C2881   1.418       .  A
C2880      C2885   1.449       .  S
C2881      C2882   1.414       .  A
C2881      C2888   1.443       .  S
C2882      C2883   1.408       .  A
C2883      C2884   1.418       .  A
C2883      C2886   1.446       .  S
C2884      C2887   1.441       .  S
C2885      N2892   1.157       .  T
C2886      N2891   1.156       .  T
C2887      N2889   1.154       .  T
C2888      N2890   1.157       .  T
C2893      C2894   1.411       .  A
C2893      C2898   1.441       .  A
C2894      C2895   1.395       .  A
C2894      C2899   1.430       .  S
C2895      C2896   1.387       .  A
C2895      C2902   1.439       .  S
C2896      C2897   1.443       .  A
C2897      C2898   1.466       .  A
C2897      C2900   1.444       .  S
C2898      C2901   1.444       .  S
C2899      N2906   1.154       .  T
C2900      N2905   1.157       .  T
C2901      N2903   1.157       .  T
C2902      N2904   1.153       .  T
C2907      C2908   1.444       .  A
C2907      C2912   1.425       .  A
C2908      C2909   1.415       .  A
C2908      C2913   1.447       .  S
C2909      C2910   1.398       .  A
C2909      C2916   1.440       .  S
C2910      C2911   1.405       .  A
C2911      C2912   1.417       .  A
C2911      C2914   1.448       .  S
C2912      C2915   1.443       .  S
C2913      N2920   1.159       .  T
C2914      N2919   1.157       .  T
C2916      N2918   1.150       .  T
C2921      C2922   1.431       .  A
C2921      C2926   1.416       .  A
C2922      C2923   1.420       .  A
C2922      C2927   1.437       .  S
C2923      C2924   1.402       .  A
C2923      C2930   1.445       .  S
C2924      C2925   1.391       .  A
C2925      C2926   1.403       .  A
C2925      C2928   1.441       .  S
C2926      C2929   1.436       .  S
C2927      N2934   1.155       .  T
C2928      N2933   1.156       .  T
C2929      N2931   1.155       .  T
C2930      N2932   1.157       .  T
C2935      C2936   1.403       .  A
C2935      C2940   1.407       .  A
C2936      C2937   1.405       .  A
C2936      C2941   1.456       .  S
C2937      C2938   1.430       .  A
C2937      C2944   1.445       .  S
C2938      C2939   1.419       .  A
C2939      C2940   1.418       .  A
C2939      C2942   1.441       .  S
C2940      C2943   1.449       .  S
C2941      N2948   1.157       .  T
C2942      N2947   1.156       .  T
C2944      N2946   1.157       .  T
C2949      C2950   1.420       .  A
C2949      C2954   1.420       .  A
C2950      C2951   1.420       .  A
C2950      C2955   1.450       .  S
C2951      C2952   1.413       .  A
C2951      C2958   1.451       .  S
C2952      C2953   1.408       .  A
C2953      C2954   1.407       .  A
C2953      C2956   1.458       .  S
C2954      C2957   1.444       .  S
C2955      N2962   1.157       .  T
C2956      N2961   1.156       .  T
C2957      N2959   1.154       .  T
C2958      N2960   1.157       .  T
C2964      C2965   1.392       .  A
C2965      C2966   1.410       .  A
C2965      C2972   1.438       .  S
C2966      C2967   1.426       .  A
C2967      C2968   1.450       .  A
C2967      C2970   1.445       .  S
C2969      N2976   1.155       .  T
C2970      N2975   1.157       .  T
C2971      N2973   1.157       .  T
C2972      N2974   1.158       .  T
