geometry optimzed in LAMMPS
_audit_creation_date              2020-12-01 
_audit_creation_method            'lammps2cif' 
_symmetry_space_group_name_H-M    'P1' 
_symmetry_Int_Tables_number       1 
_symmetry_cell_setting            triclinic 
loop_ 
_symmetry_equiv_pos_as_xyz 
  x,y,z 
_cell_length_a                    59.84020588 
_cell_length_b                    60.074856994452944 
_cell_length_c                    60.26221000549236 
_cell_angle_alpha                 90.16937254440633 
_cell_angle_beta                  89.87141777016423 
_cell_angle_gamma                 89.84122858399815 
loop_ 
_atom_site_label 
_atom_site_type_symbol 
_atom_site_fract_x 
_atom_site_fract_y 
_atom_site_fract_z 
_atom_site_charge 
C1          C  0.71948368  0.71911120  0.74651283     0.81200
N2          N  0.70902717  0.73769086  0.73880322    -0.77100
C3          C  0.71613640  0.74761091  0.71981863     0.83600
N4          N  0.73405070  0.73912694  0.70875024    -0.77100
C5          C  0.74469885  0.72060001  0.71626063     0.83700
N6          N  0.73739300  0.71075337  0.73524889    -0.78800
C7          C  0.31427215  0.74643631  0.31860434     0.81200
N8          N  0.32338824  0.73713051  0.30007915    -0.77100
C9          C  0.31451111  0.71839054  0.29099733     0.83600
N10         N  0.29614793  0.70903190  0.30044716    -0.77100
C11         C  0.28687312  0.71811048  0.31903189     0.83700
N12         N  0.29580384  0.73698248  0.32789401    -0.78800
C13         C  0.71401368  0.32251969  0.74920694     0.81200
N14         N  0.70427543  0.30424164  0.74006735    -0.77100
C15         C  0.71334307  0.29421713  0.72186885     0.83600
N16         N  0.73236722  0.30266286  0.71287426    -0.77100
C17         C  0.74219949  0.32101758  0.72171501     0.83700
N18         N  0.73303176  0.33078649  0.73999675    -0.78800
C19         C  0.32278728  0.29495735  0.71996117     0.81200
N20         N  0.30424561  0.30471637  0.71126405    -0.77100
C21         C  0.29535620  0.32340828  0.72065396     0.83600
N22         N  0.30505551  0.33199513  0.73920867    -0.77100
C23         C  0.32339104  0.32219695  0.74822445     0.83700
N24         N  0.33211988  0.30358955  0.73863789    -0.78800
C25         C  0.32194392  0.71836788  0.74604618     0.81200
N26         N  0.33156517  0.73672114  0.73687543    -0.77100
C27         C  0.32249799  0.74639085  0.71852317     0.83600
N28         N  0.30361566  0.73765196  0.70952507    -0.77100
C29         C  0.29388971  0.71938570  0.71859610     0.83700
N30         N  0.30290622  0.71000137  0.73702928    -0.78800
C31         C  0.75365912  0.32395636  0.32369803     0.81200
N32         N  0.74438587  0.30525641  0.33220421    -0.77100
C33         C  0.72665977  0.29549599  0.32210003     0.83600
N34         N  0.71822888  0.30470825  0.30327695    -0.77100
C35         C  0.72729301  0.32362198  0.29478936     0.83700
N36         N  0.74521740  0.33301312  0.30489392    -0.78800
O37         O  0.49998535  0.54208611  0.14703150    -0.72000
O38         O  0.55048963  0.49818741  0.14709341    -0.73000
O39         O  0.54740023  0.54524238  0.14642118    -0.61600
O40         O  0.50285309  0.49484545  0.14722766    -0.70000
O41         O  0.50311940  0.49461490  0.11056717    -0.69500
O42         O  0.54694423  0.54475993  0.10976896    -0.60800
O43         O  0.55039298  0.49733079  0.11054912    -0.73300
O44         O  0.49982622  0.54214379  0.11051769    -0.72100
Cu45       Cu  0.52518243  0.52006767  0.14819467     1.04600
Cu46       Cu  0.52505587  0.51965633  0.10909835     1.04300
C47         C  0.49197199  0.54954141  0.12889581     0.94200
C48         C  0.55862925  0.49066388  0.12895956     0.93400
C49         C  0.55412966  0.55312691  0.12787753     0.85500
C50         C  0.49582068  0.48677473  0.12885672     0.91800
N51         N  0.36746050  0.37900438  0.12338569    -0.02500
C52         C  0.35339230  0.37122365  0.13947555     0.00100
C53         C  0.33550724  0.36030201  0.12997723    -0.22800
C54         C  0.33835005  0.36138576  0.10747721    -0.23000
C55         C  0.35807413  0.37269168  0.10370612     0.00000
H56         H  0.32187311  0.35224592  0.13858756     0.13800
H57         H  0.32735297  0.35434912  0.09509209     0.13800
N58         N  0.37538990  0.67197999  0.12098830    -0.02500
C59         C  0.36127834  0.68231899  0.13571554     0.00100
C60         C  0.34813804  0.69775211  0.12483759    -0.22800
C61         C  0.35371859  0.69677101  0.10288584    -0.23000
C62         C  0.37050554  0.68107363  0.10073829     0.00000
H63         H  0.33552103  0.70843387  0.13214683     0.13800
H64         H  0.34626825  0.70651286  0.08975643     0.13800
N65         N  0.68155329  0.37475499  0.12412018    -0.02500
C66         C  0.69552536  0.36565994  0.13955455     0.00100
C67         C  0.71040884  0.35119880  0.12945279    -0.22800
C68         C  0.70568397  0.35131350  0.10724775    -0.23000
C69         C  0.68775112  0.36555923  0.10427527     0.00000
H70         H  0.72316991  0.34132781  0.13748358     0.13800
H71         H  0.71410550  0.34158385  0.09461011     0.13800
N72         N  0.67270588  0.67193600  0.12225814    -0.02500
C73         C  0.68580106  0.68201099  0.13791719     0.00100
C74         C  0.70227517  0.69442194  0.12767741    -0.22800
C75         C  0.69962916  0.69180956  0.10528070    -0.23000
C76         C  0.68130512  0.67821060  0.10221145     0.00000
H77         H  0.71494037  0.70439903  0.13571857     0.13800
H78         H  0.70979229  0.69935839  0.09250087     0.13800
O79         O  0.49668909  0.49873149  0.89073006    -0.72000
O80         O  0.54639901  0.54419048  0.89083114    -0.73000
O81         O  0.54400750  0.49640341  0.89055722    -0.61600
O82         O  0.49871817  0.54619543  0.89066582    -0.70000
O83         O  0.49881927  0.54644673  0.92736385    -0.69500
O84         O  0.54356538  0.49651530  0.92725056    -0.60800
O85         O  0.54644811  0.54357096  0.92740491    -0.73300
O86         O  0.49635621  0.49962410  0.92725658    -0.72100
Cu87       Cu  0.52149994  0.52143674  0.88939331     1.04600
Cu88       Cu  0.52133892  0.52159051  0.92852681     1.04300
C89         C  0.48859258  0.49184558  0.90912897     0.94200
C90         C  0.55442951  0.55111656  0.90926679     0.93400
C91         C  0.55061817  0.48821224  0.90897404     0.85500
C92         C  0.49128281  0.55398082  0.90903055     0.91800
N93         N  0.37458644  0.36843247  0.92066426    -0.02500
C94         C  0.36530426  0.35425258  0.90551697     0.00100
C95         C  0.35268077  0.33829042  0.91612579    -0.22800
C96         C  0.35401393  0.34263549  0.93841357    -0.23000
C97         C  0.36727388  0.36129060  0.94090906     0.00000
H98         H  0.34307480  0.32517874  0.90837665     0.13800
H99         H  0.34567857  0.33350686  0.95146568     0.13800
N100        N  0.37381923  0.67467150  0.91757980    -0.02500
C101        C  0.36324295  0.68700345  0.90172371     0.00100
C102        C  0.34942007  0.70260863  0.91163266    -0.22800
C103        C  0.35167578  0.70018175  0.93410897    -0.23000
C104        C  0.36657382  0.68289882  0.93752819     0.00000
H105        H  0.33896534  0.71469054  0.90332523     0.13800
H106        H  0.34327847  0.70999615  0.94669837     0.13800
N107        N  0.66239690  0.36234960  0.92251049    -0.02500
C108        C  0.67195583  0.34953755  0.90623713     0.00100
C109        C  0.68589103  0.33374648  0.91550637    -0.22800
C110        C  0.68493279  0.33660316  0.93799100    -0.23000
C111        C  0.67078210  0.35439068  0.94204320     0.00000
H112        H  0.69590947  0.32152714  0.90674711     0.13800
H113        H  0.69408967  0.32705353  0.95017236     0.13800
N114        N  0.67204416  0.67149271  0.91999647    -0.02500
C115        C  0.68245130  0.68490533  0.90486492     0.00100
C116        C  0.69579281  0.70022854  0.91567888    -0.22800
C117        C  0.69344369  0.69657935  0.93793304    -0.23000
C118        C  0.67906209  0.67879967  0.94031563     0.00000
H119        H  0.70614584  0.71284723  0.90810037     0.13800
H120        H  0.70162347  0.70574616  0.95106788     0.13800
O121        O  0.49930058  0.15612743  0.54147010    -0.72000
O122        O  0.54701697  0.15615887  0.49378911    -0.73000
O123        O  0.49906664  0.15675309  0.49411549    -0.61600
O124        O  0.54697046  0.15550620  0.54119281    -0.70000
O125        O  0.54624955  0.11858111  0.54059565    -0.69500
O126        O  0.49976118  0.12004906  0.49295172    -0.60800
O127        O  0.54703422  0.11929822  0.49377196    -0.73300
O128        O  0.49877773  0.11928263  0.54014376    -0.72100
Cu129      Cu  0.52308594  0.15746013  0.51764328     1.04600
Cu130      Cu  0.52289324  0.11808358  0.51684546     1.04300
C131        C  0.49157017  0.13757210  0.54841056     0.94200
C132        C  0.55474789  0.13766225  0.48641716     0.93400
C133        C  0.49182345  0.13848235  0.48593166     0.85500
C134        C  0.55417238  0.13675780  0.54824866     0.91800
N135        N  0.37927317  0.12373233  0.36187743    -0.02500
C136        C  0.36608711  0.13890770  0.35120222     0.00100
C137        C  0.35290197  0.12832653  0.33562917    -0.22800
C138        C  0.35771602  0.10607883  0.33678618    -0.23000
C139        C  0.37394867  0.10350817  0.35285479     0.00000
H140        H  0.34083996  0.13602112  0.32470538     0.13800
H141        H  0.35008677  0.09304951  0.32698949     0.13800
N142        N  0.67892299  0.12338821  0.37272502    -0.02500
C143        C  0.68892045  0.13856248  0.35905689     0.00100
C144        C  0.70399786  0.12805166  0.34510695    -0.22800
C145        C  0.70324271  0.10585704  0.34988830    -0.23000
C146        C  0.68804115  0.10327250  0.36697435     0.00000
H147        H  0.71448065  0.13578730  0.33270242     0.13800
H148        H  0.71299485  0.09291733  0.34192436     0.13800
N149        N  0.37756902  0.12320296  0.67181042    -0.02500
C150        C  0.36831096  0.13839759  0.68621101     0.00100
C151        C  0.35556979  0.12761190  0.70198710    -0.22800
C152        C  0.35693457  0.10535250  0.69755565    -0.23000
C153        C  0.37002458  0.10283112  0.67877521     0.00000
H154        H  0.34598256  0.13522695  0.71524185     0.13800
H155        H  0.34865043  0.09229703  0.70673880     0.13800
N156        N  0.67379825  0.12146864  0.66541972    -0.02500
C157        C  0.68570412  0.13680553  0.67732942     0.00100
C158        C  0.70053828  0.12611666  0.69132167    -0.22800
C159        C  0.69832469  0.10379183  0.68771713    -0.23000
C160        C  0.68178979  0.10120133  0.67199934     0.00000
H161        H  0.71202847  0.13384121  0.70282669     0.13800
H162        H  0.70766081  0.09072916  0.69586492     0.13800
O163        O  0.53978944  0.93461389  0.49140040    -0.72000
O164        O  0.49396441  0.93121497  0.53995170    -0.73000
O165        O  0.54164594  0.93306043  0.53841340    -0.61600
O166        O  0.49232716  0.93262323  0.49275386    -0.70000
O167        O  0.49415526  0.89578850  0.49113272    -0.69500
O168        O  0.54236723  0.89625423  0.53785349    -0.60800
O169        O  0.49465776  0.89439486  0.53828701    -0.73300
O170        O  0.54202288  0.89785455  0.49074287    -0.72100
Cu171      Cu  0.51684482  0.93413137  0.51568725     1.04600
Cu172      Cu  0.51834090  0.89479141  0.51444780     1.04300
C173        C  0.54858974  0.91681170  0.48367125     0.94200
C174        C  0.48678226  0.91236929  0.54664848     0.93400
C175        C  0.54992876  0.91469602  0.54533547     0.85500
C176        C  0.48553834  0.91414496  0.48463974     0.91800
N177        N  0.37143236  0.91973906  0.36124108    -0.02500
C178        C  0.36091668  0.90432910  0.34806128     0.00100
C179        C  0.34886989  0.91493922  0.33164285    -0.22800
C180        C  0.35228886  0.93723151  0.33412558    -0.23000
C181        C  0.36585206  0.94005177  0.35244554     0.00000
H182        H  0.33882858  0.90715851  0.31890152     0.13800
H183        H  0.34542213  0.95015759  0.32367553     0.13800
N184        N  0.68538098  0.92046175  0.38544149    -0.02500
C185        C  0.69846020  0.90331391  0.37793964     0.00100
C186        C  0.71764874  0.91150096  0.36819072    -0.22800
C187        C  0.71648034  0.93425627  0.36953810    -0.23000
C188        C  0.69648300  0.93948301  0.37988678     0.00000
H189        H  0.73082245  0.90190481  0.36036949     0.13800
H190        H  0.72861757  0.94584780  0.36300646     0.13800
N191        N  0.36534741  0.91926175  0.66301364    -0.02500
C192        C  0.35170183  0.90402215  0.67309640     0.00100
C193        C  0.33598068  0.91488405  0.68605400    -0.22800
C194        C  0.33975862  0.93724367  0.68396128    -0.23000
C195        C  0.35792989  0.93969555  0.67000413     0.00000
H196        H  0.32317546  0.90726336  0.69618668     0.13800
H197        H  0.33048554  0.95041179  0.69214249     0.13800
N198        N  0.66870023  0.91907156  0.66477574    -0.02500
C199        C  0.67727491  0.90437778  0.67991134     0.00100
C200        C  0.69095229  0.91535736  0.69476041    -0.22800
C201        C  0.69079986  0.93732107  0.68904940    -0.23000
C202        C  0.67737134  0.93934114  0.67053353     0.00000
H203        H  0.70018812  0.90805135  0.70834531     0.13800
H204        H  0.69980083  0.95050107  0.69739198     0.13800
C205        C  0.71209433  0.72139509  0.29688479     0.81200
N206        N  0.70391211  0.73953343  0.30788450    -0.77100
C207        C  0.71408877  0.74712958  0.32661003     0.83600
N208        N  0.73282735  0.73677021  0.33409842    -0.77100
C209        C  0.74119582  0.71870766  0.32323691     0.83700
N210        N  0.73092131  0.71124583  0.30455559    -0.78800
O211        O  0.10539796  0.54256487  0.50890491    -0.72000
O212        O  0.10684299  0.49443777  0.55521356    -0.73000
O213        O  0.10567202  0.54162170  0.55586627    -0.61600
O214        O  0.10648923  0.49472620  0.50829769    -0.70000
O215        O  0.14348992  0.49558984  0.50811100    -0.69500
O216        O  0.14257691  0.54280547  0.55520868    -0.60800
O217        O  0.14369319  0.49497975  0.55481399    -0.73300
O218        O  0.14229365  0.54290842  0.50824953    -0.72100
Cu219      Cu  0.10482801  0.51832517  0.53206093     1.04600
Cu220      Cu  0.14427902  0.51912137  0.53161801     1.04300
C221        C  0.12364195  0.55062505  0.50133478     0.94200
C222        C  0.12546210  0.48666179  0.56211040     0.93400
C223        C  0.12395737  0.54996555  0.56287052     0.85500
C224        C  0.12518844  0.48736210  0.50101443     0.91800
N225        N  0.12622288  0.36992398  0.38154537    -0.02500
C226        C  0.14149647  0.36142405  0.36690606     0.00100
C227        C  0.13105525  0.34753424  0.35183921    -0.22800
C228        C  0.10878407  0.34755617  0.35701791    -0.23000
C229        C  0.10615280  0.36121916  0.37531495     0.00000
H230        H  0.13888267  0.33830545  0.33847472     0.13800
H231        H  0.09584058  0.33841036  0.34846117     0.13800
N232        N  0.11719789  0.66404807  0.37787701    -0.02500
C233        C  0.13191213  0.67237560  0.36253458     0.00100
C234        C  0.12058656  0.68462998  0.34676449    -0.22800
C235        C  0.09843835  0.68383771  0.35209751    -0.23000
C236        C  0.09659764  0.67145980  0.37129239     0.00000
H237        H  0.12779983  0.69340123  0.33282509     0.13800
H238        H  0.08499790  0.69180161  0.34309508     0.13800
N239        N  0.11928025  0.36193417  0.67445257    -0.02500
C240        C  0.13528427  0.34915869  0.68438755     0.00100
C241        C  0.12538942  0.33385576  0.69839274    -0.22800
C242        C  0.10277237  0.33695115  0.69693180    -0.23000
C243        C  0.09932133  0.35432789  0.68236066     0.00000
H244        H  0.13379526  0.32167707  0.70861503     0.13800
H245        H  0.09012137  0.32765275  0.70577861     0.13800
N246        N  0.11974447  0.68215652  0.66605823    -0.02500
C247        C  0.13571290  0.69542984  0.67527234     0.00100
C248        C  0.12571542  0.71322162  0.68607728    -0.22800
C249        C  0.10309700  0.71110981  0.68324392    -0.23000
C250        C  0.09975913  0.69188565  0.67106954     0.00000
H251        H  0.13404725  0.72641140  0.69505441     0.13800
H252        H  0.09038884  0.72226111  0.68962779     0.13800
O253        O  0.89349381  0.49488982  0.54808774    -0.72000
O254        O  0.89179675  0.53967332  0.49865547    -0.73000
O255        O  0.89349331  0.49225059  0.50119627    -0.61600
O256        O  0.89182180  0.54209552  0.54573348    -0.70000
O257        O  0.92880016  0.54292393  0.54573860    -0.69500
O258        O  0.93033559  0.49385871  0.50044724    -0.60800
O259        O  0.92869915  0.54079117  0.49851388    -0.73300
O260        O  0.93037285  0.49508804  0.54747910    -0.72100
Cu261      Cu  0.89139702  0.51720023  0.52344397     1.04600
Cu262      Cu  0.93083247  0.51823454  0.52311132     1.04300
C263        C  0.91208807  0.48733524  0.55528932     0.94200
C264        C  0.90999365  0.54740218  0.49066142     0.93400
C265        C  0.91216518  0.48513052  0.49362664     0.85500
C266        C  0.91007755  0.55052808  0.55273613     0.91800
N267        N  0.92438598  0.35953584  0.38300461    -0.02500
C268        C  0.90880558  0.34647749  0.37296736     0.00100
C269        C  0.91908175  0.32947640  0.36125104    -0.22800
C270        C  0.94163145  0.33192649  0.36422045    -0.23000
C271        C  0.94453104  0.35050885  0.37746764     0.00000
H272        H  0.91098534  0.31669691  0.35149255     0.13800
H273        H  0.95460174  0.32147587  0.35719059     0.13800
N274        N  0.91340332  0.67084047  0.37748115    -0.02500
C275        C  0.89827602  0.68456966  0.36736256     0.00100
C276        C  0.90919914  0.70118048  0.35587333    -0.22800
C277        C  0.93159919  0.69793505  0.35895105    -0.23000
C278        C  0.93389146  0.67925301  0.37206161     0.00000
H279        H  0.90157772  0.71428418  0.34614883     0.13800
H280        H  0.94490595  0.70799402  0.35215212     0.13800
N281        N  0.91575341  0.37150962  0.67691587    -0.02500
C282        C  0.89985670  0.36230725  0.69038242     0.00100
C283        C  0.90981793  0.34928429  0.70643083    -0.22800
C284        C  0.93234724  0.35043872  0.70309000    -0.23000
C285        C  0.93571316  0.36387219  0.68482359     0.00000
H286        H  0.90140725  0.33970149  0.71922985     0.13800
H287        H  0.94507382  0.34196820  0.71270769     0.13800
N288        N  0.91760625  0.67666256  0.66336775    -0.02500
C289        C  0.90250104  0.68732095  0.67672625     0.00100
C290        C  0.91322110  0.70254816  0.69021814    -0.22800
C291        C  0.93552356  0.70108190  0.68551522    -0.23000
C292        C  0.93791092  0.68531605  0.66893219     0.00000
H293        H  0.90558220  0.71346172  0.70237665     0.13800
H294        H  0.94867863  0.71062117  0.69328934     0.13800
C295        C  0.32509449  0.29705349  0.32059095     0.81200
N296        N  0.30684987  0.30575562  0.33107202    -0.77100
C297        C  0.29679347  0.32458868  0.32340071     0.83600
N298        N  0.30495376  0.33455831  0.30484515    -0.77100
C299        C  0.32318528  0.32607638  0.29431111     0.83700
N300        N  0.33312269  0.30737321  0.30218215    -0.78800
C301        C  0.89606978  0.44701614  0.44508972    -0.04500
C302        C  0.91539053  0.43382486  0.44292282     0.09600
C303        C  0.93346130  0.43692961  0.45748836    -0.01900
C304        C  0.93224944  0.45320203  0.47435469    -0.00200
C305        C  0.91290070  0.46686945  0.47660294    -0.03800
C306        C  0.89457344  0.46318239  0.46204652     0.03300
C307        C  0.91606971  0.41525080  0.42647211     0.10100
C308        C  0.95325576  0.42304483  0.45518903     0.36000
C309        C  0.87383191  0.47549594  0.46447655     0.39400
C310        C  0.92637899  0.41816688  0.40568058    -0.04100
C311        C  0.92880273  0.39992516  0.39108941     0.03000
C312        C  0.92049922  0.37872249  0.39707487    -0.03700
C313        C  0.90939991  0.37618312  0.41764748     0.00000
C314        C  0.90730125  0.39435564  0.43230459    -0.02500
C315        C  0.93452058  0.43998970  0.39940168     0.36700
C316        C  0.90159275  0.35456379  0.42472639     0.40300
C317        C  0.93947126  0.40331495  0.36980343     0.39500
C318        C  0.89671234  0.39146616  0.45380159     0.36400
C319        C  0.87769491  0.44387093  0.42971500     0.37100
C320        C  0.95059760  0.45481568  0.48999432     0.40300
N321        N  0.94774361  0.40686691  0.35281191    -0.37700
N322        N  0.94091536  0.45742608  0.39436782    -0.39300
N323        N  0.89548218  0.33759124  0.43137614    -0.37100
N324        N  0.88832072  0.38926030  0.47097129    -0.39500
N325        N  0.96897967  0.41194676  0.45320700    -0.39200
N326        N  0.96525444  0.45592322  0.50244850    -0.36900
N327        N  0.85700845  0.48483636  0.46649211    -0.37900
N328        N  0.86312885  0.44139361  0.41735974    -0.39600
C329        C  0.89315583  0.43808482  0.59119996    -0.04500
C330        C  0.91131675  0.43556394  0.60574926     0.09600
C331        C  0.93014071  0.44940915  0.60349184    -0.01900
C332        C  0.93062165  0.46619666  0.58709553    -0.00200
C333        C  0.91218780  0.46919866  0.57251652    -0.03800
C334        C  0.89368949  0.45443336  0.57441886     0.03300
C335        C  0.91069147  0.41825628  0.62359121     0.10100
C336        C  0.94906517  0.44629111  0.61821827     0.36000
C337        C  0.87547633  0.45511210  0.55856464     0.39400
C338        C  0.91956191  0.39685918  0.61966289    -0.04100
C339        C  0.92037357  0.38106196  0.63694976     0.03000
C340        C  0.91247941  0.38660502  0.65844193    -0.03700
C341        C  0.90298537  0.40792342  0.66205857     0.00000
C342        C  0.90189609  0.42355376  0.64464916    -0.02500
C343        C  0.92801683  0.39121563  0.59777435     0.36700
C344        C  0.89611226  0.41473531  0.68408883     0.40300
C345        C  0.92902120  0.35902148  0.63230120     0.39500
C346        C  0.89218480  0.44539247  0.64848288     0.36400
C347        C  0.87384393  0.42371422  0.59356472     0.37100
C348        C  0.95024076  0.48021675  0.58556149     0.40300
N349        N  0.93570549  0.34147709  0.62784155    -0.37700
N350        N  0.93472850  0.38675349  0.58029014    -0.39300
N351        N  0.89088969  0.42115182  0.70146105    -0.37100
N352        N  0.88437979  0.46279592  0.65145898    -0.39500
N353        N  0.96410382  0.44365202  0.62997449    -0.39200
N354        N  0.96615806  0.49105517  0.58444646    -0.36900
N355        N  0.86097878  0.45550821  0.54588711    -0.37900
N356        N  0.85843538  0.41228696  0.59554627    -0.39600
C357        C  0.92554619  0.59677275  0.45342186    -0.04500
C358        C  0.90747954  0.59725674  0.43847929     0.09600
C359        C  0.89049882  0.58118386  0.44017622    -0.01900
C360        C  0.89156127  0.56458136  0.45672417    -0.00200
C361        C  0.90938842  0.56429761  0.47230216    -0.03800
C362        C  0.92648220  0.58057028  0.47033188     0.03300
C363        C  0.90624667  0.61526717  0.42135289     0.10100
C364        C  0.87174084  0.58195880  0.42497862     0.36000
C365        C  0.94481642  0.58134493  0.48602965     0.39400
C366        C  0.91666988  0.61245571  0.40055739    -0.04100
C367        C  0.91776309  0.63038613  0.38547500     0.03000
C368        C  0.90909134  0.65156895  0.39134941    -0.03700
C369        C  0.89792784  0.65399270  0.41196604     0.00000
C370        C  0.89618594  0.63581373  0.42667330    -0.02500
C371        C  0.92677503  0.59118399  0.39496726     0.36700
C372        C  0.88987301  0.67551297  0.41924114     0.40300
C373        C  0.92761821  0.62673194  0.36383392     0.39500
C374        C  0.88470085  0.63839497  0.44776852     0.36400
C375        C  0.94306579  0.61334122  0.45152187     0.37100
C376        C  0.87446179  0.54753785  0.45709852     0.40300
N377        N  0.93528199  0.62295700  0.34658295    -0.37700
N378        N  0.93488515  0.57421576  0.39059167    -0.39300
N379        N  0.88356065  0.69231450  0.42630442    -0.37100
N380        N  0.87549103  0.64033899  0.46457218    -0.39500
N381        N  0.85671686  0.58265515  0.41293863    -0.39200
N382        N  0.86068817  0.53406286  0.45716946    -0.36900
N383        N  0.95950613  0.58202973  0.49847339    -0.37900
N384        N  0.95695755  0.62660479  0.44988960    -0.39600
C385        C  0.89236282  0.60397843  0.58282249    -0.04500
C386        C  0.90876209  0.60548338  0.59950458     0.09600
C387        C  0.92548999  0.58899937  0.60097393    -0.01900
C388        C  0.92570610  0.57088748  0.58603777    -0.00200
C389        C  0.90950852  0.56939851  0.56896784    -0.03800
C390        C  0.89288357  0.58622940  0.56739889     0.03300
C391        C  0.90886170  0.62465947  0.61542340     0.10100
C392        C  0.94266110  0.59084987  0.61786191     0.36000
C393        C  0.87678937  0.58593577  0.54941812     0.39400
C394        C  0.90119018  0.62178987  0.63735360    -0.04100
C395        C  0.90360194  0.63906563  0.65307660     0.03000
C396        C  0.91330798  0.65958649  0.64686570    -0.03700
C397        C  0.91998952  0.66270444  0.62454224     0.00000
C398        C  0.91807219  0.64521717  0.60900222    -0.02500
C399        C  0.89154374  0.60066509  0.64390434     0.36700
C400        C  0.92836967  0.68404927  0.61724566     0.40300
C401        C  0.89785687  0.63479130  0.67600761     0.39500
C402        C  0.92618347  0.64810576  0.58648560     0.36400
C403        C  0.87498393  0.62081067  0.58153486     0.37100
C404        C  0.94236650  0.55356391  0.58880415     0.40300
N405        N  0.89350104  0.63052433  0.69421421    -0.37700
N406        N  0.88392686  0.58378098  0.64911993    -0.39300
N407        N  0.93478984  0.70097702  0.61075733    -0.37100
N408        N  0.93269054  0.65031389  0.56853016    -0.39500
N409        N  0.95633046  0.59242196  0.63132562    -0.39200
N410        N  0.95576728  0.53987776  0.59122094    -0.36900
N411        N  0.86399216  0.58576841  0.53504382    -0.37900
N412        N  0.86111900  0.63423820  0.58055017    -0.39600
C413        C  0.03911378  0.67486983  0.67904052    -0.04500
C414        C  0.03149564  0.67323888  0.65696485     0.09600
C415        C  0.04687509  0.67510479  0.63933557    -0.01900
C416        C  0.06938891  0.68075650  0.64364082    -0.00200
C417        C  0.07692978  0.68323963  0.66578991    -0.03800
C418        C  0.06166960  0.67970068  0.68344630     0.03300
C419        C  0.00685160  0.67405387  0.65277675     0.10100
C420        C  0.03908657  0.67246243  0.61670634     0.36000
C421        C  0.06888463  0.68196124  0.70634157     0.39400
C422        C  0.99684962  0.69484541  0.64844457    -0.04100
C423        C  0.97370664  0.69774710  0.65145058     0.03000
C424        C  0.96031512  0.67993549  0.65922002    -0.03700
C425        C  0.97011628  0.65857762  0.66157114     0.00000
C426        C  0.99325204  0.65558398  0.65766633    -0.02500
C427        C  0.01070232  0.71378805  0.64267021     0.36700
C428        C  0.95742591  0.64021584  0.67056447     0.40300
C429        C  0.96402279  0.71968381  0.64813326     0.39500
C430        C  0.00346114  0.63380707  0.66010718     0.36400
C431        C  0.02334863  0.67301485  0.69730229     0.37100
C432        C  0.08370428  0.68645434  0.62514061     0.40300
N433        N  0.95638351  0.73720760  0.64558206    -0.37700
N434        N  0.02182728  0.72882716  0.63809792    -0.39300
N435        N  0.94810705  0.62512524  0.67801251    -0.37100
N436        N  0.01161253  0.61641632  0.66190919    -0.39500
N437        N  0.03280677  0.67030054  0.59868095    -0.39200
N438        N  0.09430804  0.69125550  0.60981745    -0.36900
N439        N  0.07459211  0.68381528  0.72458963    -0.37900
N440        N  0.01071706  0.67157678  0.71179448    -0.39600
C441        C  0.03958233  0.37387232  0.69209670    -0.04500
C442        C  0.03027506  0.37204689  0.67068122     0.09600
C443        C  0.04437398  0.36734365  0.65244895    -0.01900
C444        C  0.06722964  0.36230683  0.65586107    -0.00200
C445        C  0.07640471  0.36313426  0.67748733    -0.03800
C446        C  0.06247424  0.36959531  0.69547410     0.03300
C447        C  0.00531354  0.37124798  0.66833547     0.10100
C448        C  0.03497301  0.36652326  0.63030074     0.36000
C449        C  0.07144270  0.37097157  0.71781804     0.39400
C450        C  0.99213982  0.39050174  0.67171580    -0.04100
C451        C  0.96889437  0.38861019  0.67570952     0.03000
C452        C  0.95857936  0.36744188  0.67543028    -0.03700
C453        C  0.97160089  0.34845768  0.66987598     0.00000
C454        C  0.99478915  0.35035214  0.66645164    -0.02500
C455        C  0.00284820  0.41211710  0.67237812     0.36700
C456        C  0.96136859  0.32656522  0.66895493     0.40300
C457        C  0.95638923  0.40820383  0.68231363     0.39500
C458        C  0.00808058  0.33046384  0.66249729     0.36400
C459        C  0.02527718  0.37886668  0.71097651     0.37100
C460        C  0.08035094  0.35399443  0.63739513     0.40300
N461        N  0.94704371  0.42420178  0.68776242    -0.37700
N462        N  0.01144419  0.42934190  0.67290774    -0.39300
N463        N  0.95322050  0.30912652  0.66827646    -0.37100
N464        N  0.01868395  0.31462997  0.65930848    -0.39500
N465        N  0.02743098  0.36587465  0.61264551    -0.39200
N466        N  0.09014169  0.34708859  0.62228571    -0.36900
N467        N  0.07855411  0.37205837  0.73563227    -0.37900
N468        N  0.01384287  0.38287279  0.72598760    -0.39600
C469        C  0.03795662  0.68604942  0.39000312    -0.04500
C470        C  0.02756984  0.66502103  0.39007917     0.09600
C471        C  0.04092397  0.64565761  0.38873486    -0.01900
C472        C  0.06411685  0.64730340  0.38421201    -0.00200
C473        C  0.07432260  0.66846427  0.38240319    -0.03800
C474        C  0.06121645  0.68774736  0.38673058     0.03300
C475        C  0.00268623  0.66374428  0.38691081     0.10100
C476        C  0.03037921  0.62403504  0.39049979     0.36000
C477        C  0.07139616  0.70966908  0.38625122     0.39400
C478        C  0.99429928  0.66091615  0.36522401    -0.04100
C479        C  0.97146358  0.66446685  0.36077622     0.03000
C480        C  0.95646923  0.67036200  0.37808306    -0.03700
C481        C  0.96469258  0.67208248  0.40002168     0.00000
C482        C  0.98772403  0.66873268  0.40440003    -0.02500
C483        C  0.00957213  0.65598880  0.34708404     0.36700
C484        C  0.95013960  0.67962289  0.41775479     0.40300
C485        C  0.96376291  0.66358466  0.33794991     0.39500
C486        C  0.99635085  0.67187727  0.42664622     0.36400
C487        C  0.02440258  0.70610004  0.39130439     0.37100
C488        C  0.07654341  0.62725713  0.37902470     0.40300
N489        N  0.95771293  0.66300436  0.31972881    -0.37700
N490        N  0.02182866  0.65210850  0.33269305    -0.39300
N491        N  0.93898357  0.68589654  0.43218979    -0.37100
N492        N  0.00326982  0.67455847  0.44436784    -0.39500
N493        N  0.02191009  0.60681085  0.39201689    -0.39200
N494        N  0.08577664  0.61084806  0.37474080    -0.36900
N495        N  0.07948060  0.72714307  0.38582091    -0.37900
N496        N  0.01354263  0.72205087  0.39217936    -0.39600
C497        C  0.25360048  0.36480213  0.34816090    -0.04500
C498        C  0.23527421  0.35050754  0.35170604     0.09600
C499        C  0.23766207  0.32750692  0.34727674    -0.01900
C500        C  0.25789119  0.31896833  0.33862657    -0.00200
C501        C  0.27604057  0.33337192  0.33421182    -0.03800
C502        C  0.27384584  0.35632656  0.33930877     0.03300
C503        C  0.21269144  0.35951029  0.35812687     0.10100
C504        C  0.21891095  0.31266758  0.35096262     0.36000
C505        C  0.29247353  0.37126677  0.33560400     0.39400
C506        C  0.19900366  0.36921603  0.34176877    -0.04100
C507        C  0.17592185  0.37206604  0.34566163     0.03000
C508        C  0.16619853  0.36520300  0.36602185    -0.03700
C509        C  0.18033732  0.35724580  0.38305588     0.00000
C510        C  0.20356862  0.35489128  0.37922857    -0.02500
C511        C  0.20839610  0.37477384  0.32026807     0.36700
C512        C  0.17101503  0.34881341  0.40354079     0.40300
C513        C  0.16190954  0.38053055  0.32791974     0.39500
C514        C  0.21796381  0.34620962  0.39651236     0.36400
C515        C  0.25149806  0.38826907  0.35348401     0.37100
C516        C  0.25943896  0.29548486  0.33310838     0.40300
N517        N  0.15076519  0.38721926  0.31373755    -0.37700
N518        N  0.21591871  0.37923194  0.30314530    -0.39300
N519        N  0.16435347  0.34154684  0.42002282    -0.37100
N520        N  0.22945298  0.33927171  0.41029324    -0.39500
N521        N  0.20391558  0.30093895  0.35403237    -0.39200
N522        N  0.26059312  0.27675252  0.32869948    -0.36900
N523        N  0.30733023  0.38318425  0.33258986    -0.37900
N524        N  0.24980064  0.40699454  0.35774848    -0.39600
C525        C  0.05016057  0.38731253  0.39143175    -0.04500
C526        C  0.03752479  0.36792962  0.39528146     0.09600
C527        C  0.04854043  0.34726624  0.39730807    -0.01900
C528        C  0.07157938  0.34559403  0.39279260    -0.00200
C529        C  0.08385023  0.36459404  0.38609065    -0.03800
C530        C  0.07314528  0.38564525  0.38618080     0.03300
C531        C  0.01273464  0.36818488  0.39187664     0.10100
C532        C  0.03582245  0.32736569  0.40238480     0.36000
C533        C  0.08465793  0.40523602  0.37826913     0.39400
C534        C  0.00448275  0.36927118  0.36998002    -0.04100
C535        C  0.98188019  0.36474393  0.36562348     0.03000
C536        C  0.96712028  0.35924269  0.38314592    -0.03700
C537        C  0.97513486  0.35929764  0.40522715     0.00000
C538        C  0.99783383  0.36414284  0.40957226    -0.02500
C539        C  0.01957184  0.37391688  0.35166415     0.36700
C540        C  0.96089547  0.35225479  0.42332754     0.40300
C541        C  0.97407173  0.36482368  0.34280738     0.39500
C542        C  0.00616640  0.36400758  0.43214762     0.36400
C543        C  0.03895839  0.40875511  0.39116096     0.37100
C544        C  0.08229673  0.32388757  0.39358718     0.40300
N545        N  0.96785512  0.36488887  0.32463460    -0.37700
N546        N  0.03161176  0.37772015  0.33711439    -0.39300
N547        N  0.95017287  0.34640728  0.43819600    -0.37100
N548        N  0.01281132  0.36390004  0.45016662    -0.39500
N549        N  0.02568316  0.31152276  0.40650271    -0.39200
N550        N  0.09081071  0.30657819  0.39420098    -0.36900
N551        N  0.09305323  0.42126037  0.37173246    -0.37900
N552        N  0.02992969  0.42581341  0.39099419    -0.39600
C553        C  0.12358724  0.39562185  0.43864913    -0.04500
C554        C  0.13095211  0.41741604  0.43424158     0.09600
C555        C  0.13890241  0.42283542  0.41290578    -0.01900
C556        C  0.13815689  0.40693845  0.39565356    -0.00200
C557        C  0.12996350  0.38526369  0.39975944    -0.03800
C558        C  0.12340998  0.37953081  0.42158792     0.03300
C559        C  0.12917413  0.43503043  0.45174768     0.10100
C560        C  0.14717595  0.44509693  0.40857697     0.36000
C561        C  0.11682616  0.35697832  0.42679399     0.39400
C562        C  0.14442697  0.43556736  0.46951970    -0.04100
C563        C  0.14249073  0.45207820  0.48609461     0.03000
C564        C  0.12590342  0.46890169  0.48444072    -0.03700
C565        C  0.11031641  0.46796112  0.46681807     0.00000
C566        C  0.11185460  0.45097060  0.45068867    -0.02500
C567        C  0.16216301  0.41909728  0.47068913     0.36700
C568        C  0.09278729  0.48453665  0.46491306     0.40300
C569        C  0.15686401  0.45094879  0.50544114     0.39500
C570        C  0.09552487  0.44980407  0.43294227     0.36400
C571        C  0.11565522  0.38993179  0.46068616     0.37100
C572        C  0.14389522  0.41377439  0.37336028     0.40300
N573        N  0.16814812  0.44991469  0.52098180    -0.37700
N574        N  0.17628621  0.40593445  0.47159138    -0.39300
N575        N  0.07859312  0.49752848  0.46324461    -0.37100
N576        N  0.08250178  0.44887195  0.41880528    -0.39500
N577        N  0.15372582  0.46286837  0.40515268    -0.39200
N578        N  0.14819603  0.42016931  0.35578004    -0.36900
N579        N  0.11191203  0.33904398  0.43171457    -0.37900
N580        N  0.10938992  0.38544187  0.47829057    -0.39600
C581        C  0.13428700  0.39262841  0.62187369    -0.04500
C582        C  0.12552636  0.41394869  0.62644765     0.09600
C583        C  0.11554792  0.41831202  0.64720511    -0.01900
C584        C  0.11419959  0.40141200  0.66331136    -0.00200
C585        C  0.12247413  0.37980412  0.65866322    -0.03800
C586        C  0.13272815  0.37558880  0.63788019     0.03300
C587        C  0.12608641  0.43178751  0.60918228     0.10100
C588        C  0.10638870  0.44023456  0.65183722     0.36000
C589        C  0.14027622  0.35337642  0.63219589     0.39400
C590        C  0.10727718  0.43547364  0.59571850    -0.04100
C591        C  0.10709635  0.45309943  0.58028156     0.03000
C592        C  0.12581001  0.46761254  0.57833425    -0.03700
C593        C  0.14490840  0.46336402  0.59176327     0.00000
C594        C  0.14500848  0.44544640  0.60690991    -0.02500
C595        C  0.08805403  0.42090027  0.59778853     0.36700
C596        C  0.16447783  0.47751636  0.59062107     0.40300
C597        C  0.08764050  0.45563920  0.56616320     0.39500
C598        C  0.16461688  0.44099696  0.62034480     0.36400
C599        C  0.14426992  0.38809246  0.60037021     0.37100
C600        C  0.10501312  0.40668202  0.68494801     0.40300
N601        N  0.07204003  0.45754581  0.55499903    -0.37700
N602        N  0.07280573  0.40921881  0.59952572    -0.39300
N603        N  0.18021610  0.48864266  0.58979938    -0.37100
N604        N  0.18024461  0.43728177  0.63100451    -0.39500
N605        N  0.09899522  0.45769898  0.65543276    -0.39200
N606        N  0.09797135  0.41159353  0.70218044    -0.36900
N607        N  0.14613575  0.33575109  0.62697754    -0.37900
N608        N  0.15219871  0.38448838  0.58319468    -0.39600
C609        C  0.10573724  0.58794290  0.45273669    -0.04500
C610        C  0.12397955  0.60264124  0.45113145     0.09600
C611        C  0.14151366  0.60113651  0.46658850    -0.01900
C612        C  0.14125703  0.58451984  0.48315777    -0.00200
C613        C  0.12331167  0.56906347  0.48445566    -0.03800
C614        C  0.10519970  0.57144421  0.46940059     0.03300
C615        C  0.12471046  0.61955171  0.43285889     0.10100
C616        C  0.15984665  0.61684412  0.46540552     0.36000
C617        C  0.08580676  0.55708958  0.47076974     0.39400
C618        C  0.11620327  0.64118295  0.43629181    -0.04100
C619        C  0.11500053  0.65637692  0.41846690     0.03000
C620        C  0.12188331  0.64993141  0.39686816    -0.03700
C621        C  0.13125550  0.62846829  0.39378080     0.00000
C622        C  0.13290516  0.61350531  0.41175052    -0.02500
C623        C  0.10832945  0.64762035  0.45817278     0.36700
C624        C  0.13716602  0.62067870  0.37180387     0.40300
C625        C  0.10692911  0.67874183  0.42258171     0.39500
C626        C  0.14241728  0.59149570  0.40842484     0.36400
C627        C  0.08745435  0.58979238  0.43704631     0.37100
C628        C  0.15921080  0.58407702  0.49930260     0.40300
N629        N  0.10074027  0.69660074  0.42645477    -0.37700
N630        N  0.10208118  0.65269109  0.47566293    -0.39300
N631        N  0.14166855  0.61343348  0.35455842    -0.37100
N632        N  0.15004431  0.57395110  0.40585441    -0.39500
N633        N  0.17439639  0.62945819  0.46446728    -0.39200
N634        N  0.17354885  0.58380407  0.51216108    -0.36900
N635        N  0.07003789  0.54603977  0.47187950    -0.37900
N636        N  0.07287308  0.59121856  0.42454526    -0.39600
C637        C  0.10531103  0.60156258  0.59549407    -0.04500
C638        C  0.12335022  0.60445261  0.61014216     0.09600
C639        C  0.14116658  0.58912617  0.61007797    -0.01900
C640        C  0.14133401  0.57118615  0.59491683    -0.00200
C641        C  0.12350165  0.56841368  0.57962722    -0.03800
C642        C  0.10537807  0.58378054  0.58017935     0.03300
C643        C  0.12380174  0.62410534  0.62532062     0.10100
C644        C  0.15927946  0.59184657  0.62582475     0.36000
C645        C  0.08706630  0.58207709  0.56450954     0.39400
C646        C  0.11389591  0.62285254  0.64647964    -0.04100
C647        C  0.11329827  0.64178031  0.66031550     0.03000
C648        C  0.12284781  0.66205665  0.65315531    -0.03700
C649        C  0.13340929  0.66299675  0.63218733     0.00000
C650        C  0.13356910  0.64416856  0.61818659    -0.02500
C651        C  0.10388124  0.60214930  0.65375597     0.36700
C652        C  0.14249717  0.68377366  0.62412477     0.40300
C653        C  0.10315060  0.64015057  0.68208257     0.39500
C654        C  0.14281630  0.64567382  0.59596235     0.36400
C655        C  0.08667868  0.61708576  0.59618776     0.37100
C656        C  0.15983021  0.55553560  0.59547443     0.40300
N657        N  0.09525615  0.63824641  0.69951620    -0.37700
N658        N  0.09586824  0.58562795  0.65950836    -0.39300
N659        N  0.14955987  0.70018001  0.61700125    -0.37100
N660        N  0.14996941  0.64689339  0.57815130    -0.39500
N661        N  0.17361469  0.59405800  0.63849294    -0.39200
N662        N  0.17470785  0.54319752  0.59595852    -0.36900
N663        N  0.07240521  0.58080353  0.55207663    -0.37900
N664        N  0.07181859  0.62943676  0.59686493    -0.39600
C665        C  0.78518525  0.68845882  0.35771179    -0.04500
C666        C  0.80490715  0.69353488  0.34588831     0.09600
C667        C  0.80341034  0.70552447  0.32579752    -0.01900
C668        C  0.78247575  0.71309461  0.31803821    -0.00200
C669        C  0.76284689  0.70884241  0.33036448    -0.03800
C670        C  0.76421600  0.69611226  0.34998380     0.03300
C671        C  0.82751946  0.68825872  0.35539775     0.10100
C672        C  0.82359670  0.71068013  0.31348447     0.36000
C673        C  0.74398895  0.69083079  0.36212747     0.39400
C674        C  0.83968118  0.66940398  0.34819438    -0.04100
C675        C  0.86250154  0.66685682  0.35394821     0.03000
C676        C  0.87331045  0.68312898  0.36710695    -0.03700
C677        C  0.86068739  0.70158619  0.37495810     0.00000
C678        C  0.83788075  0.70385364  0.36949702    -0.02500
C679        C  0.82901657  0.65336595  0.33367514     0.36700
C680        C  0.87159932  0.71944867  0.38701754     0.40300
C681        C  0.87532688  0.64893184  0.34400862     0.39500
C682        C  0.82536288  0.72313452  0.37716528     0.36400
C683        C  0.78659176  0.67567627  0.37801275     0.37100
C684        C  0.78123494  0.72601809  0.29777288     0.40300
N685        N  0.88518612  0.63466125  0.33551783    -0.37700
N686        N  0.82049833  0.64062208  0.32202746    -0.39300
N687        N  0.88026124  0.73380077  0.39650351    -0.37100
N688        N  0.81533405  0.73849644  0.38322589    -0.39500
N689        N  0.83975493  0.71475760  0.30374013    -0.39200
N690        N  0.78021512  0.73633701  0.28161731    -0.36900
N691        N  0.72778020  0.68657205  0.37170667    -0.37900
N692        N  0.78776913  0.66543956  0.39420646    -0.39600
C693        C  0.67611085  0.84760518  0.35763059    -0.04500
C694        C  0.69192596  0.83279370  0.36672115     0.09600
C695        C  0.70697208  0.84065936  0.38286806    -0.01900
C696        C  0.70820022  0.86365040  0.38772581    -0.00200
C697        C  0.69321592  0.87891709  0.37765389    -0.03800
C698        C  0.67677304  0.87056654  0.36296718     0.03300
C699        C  0.69608721  0.81052978  0.35595561     0.10100
C700        C  0.72215796  0.82514173  0.39347157     0.36000
C701        C  0.66254187  0.88572936  0.35079316     0.39400
C702        C  0.71001315  0.80944063  0.33700364    -0.04100
C703        C  0.71567675  0.78870761  0.32746998     0.03000
C704        C  0.70721945  0.76880056  0.33654085    -0.03700
C705        C  0.69305047  0.76980828  0.35531825     0.00000
C706        C  0.68746792  0.79064692  0.36499445    -0.02500
C707        C  0.71884909  0.82978077  0.32751100     0.36700
C708        C  0.68449971  0.74939279  0.36481664     0.40300
C709        C  0.73089122  0.78779880  0.30870308     0.39500
C710        C  0.67301075  0.79169937  0.38428689     0.36400
C711        C  0.66014540  0.83936533  0.34152620     0.37100
C712        C  0.72644325  0.87169229  0.40134670     0.40300
N713        N  0.74313714  0.78702577  0.29382865    -0.37700
N714        N  0.72579059  0.84606577  0.31998860    -0.39300
N715        N  0.67771511  0.73307303  0.37240951    -0.37100
N716        N  0.66144640  0.79258478  0.39968476    -0.39500
N717        N  0.73408473  0.81265980  0.40204007    -0.39200
N718        N  0.74124518  0.87793754  0.41199100    -0.36900
N719        N  0.65121627  0.89727212  0.34035727    -0.37900
N720        N  0.64741975  0.83278219  0.32866880    -0.39600
C721        C  0.45225318  0.92844576  0.43251520    -0.04500
C722        C  0.43397348  0.91370660  0.43412631     0.09600
C723        C  0.43254199  0.89918109  0.45244207    -0.01900
C724        C  0.44907411  0.89961940  0.46919481    -0.00200
C725        C  0.46766449  0.91404954  0.46736032    -0.03800
C726        C  0.46920483  0.92834426  0.44880107     0.03300
C727        C  0.41659010  0.91321683  0.41612969     0.10100
C728        C  0.41415689  0.88357339  0.45384221     0.36000
C729        C  0.48875316  0.94228333  0.44588629     0.39400
C730        C  0.42109012  0.90217048  0.39592247    -0.04100
C731        C  0.40584517  0.90353057  0.37808587     0.03000
C732        C  0.38573021  0.91580340  0.38032952    -0.03700
C733        C  0.38068771  0.92573393  0.40109719     0.00000
C734        C  0.39610973  0.92460432  0.41881839    -0.02500
C735        C  0.44186656  0.88992573  0.39330358     0.36700
C736        C  0.35943418  0.93685001  0.40441999     0.40300
C737        C  0.41206422  0.89392032  0.35691137     0.39500
C738        C  0.39113548  0.93553905  0.43974536     0.36400
C739        C  0.45364488  0.94372105  0.41397013     0.37100
C740        C  0.44650618  0.88574381  0.48868853     0.40300
N741        N  0.41791119  0.88627608  0.34023644    -0.37700
N742        N  0.45846869  0.88020467  0.39125468    -0.39300
N743        N  0.34245059  0.94562096  0.40742788    -0.37100
N744        N  0.38720017  0.94421742  0.45647904    -0.39500
N745        N  0.39951419  0.87106930  0.45483422    -0.39200
N746        N  0.44438335  0.87479759  0.50432132    -0.36900
N747        N  0.50444175  0.95325470  0.44351647    -0.37900
N748        N  0.45476501  0.95596528  0.39922557    -0.39600
C749        C  0.43485607  0.92697908  0.58082435    -0.04500
C750        C  0.43557546  0.91072961  0.59764820     0.09600
C751        C  0.45281279  0.89467978  0.59757218    -0.01900
C752        C  0.46951226  0.89506966  0.58094856    -0.00200
C753        C  0.46899148  0.91150258  0.56409382    -0.03800
C754        C  0.45131987  0.92729055  0.56403779     0.03300
C755        C  0.41807044  0.91075686  0.61548266     0.10100
C756        C  0.45331819  0.87777251  0.61470125     0.36000
C757        C  0.44949317  0.94349541  0.54630936     0.39400
C758        C  0.39654416  0.90243260  0.61102713    -0.04100
C759        C  0.37931417  0.90473364  0.62691381     0.03000
C760        C  0.38356422  0.91496839  0.64765341    -0.03700
C761        C  0.40546903  0.92240731  0.65238732     0.00000
C762        C  0.42257782  0.92042513  0.63632773    -0.02500
C763        C  0.39202294  0.89205260  0.58973698     0.36700
C764        C  0.41073632  0.93175701  0.67389279     0.40300
C765        C  0.35685320  0.89816997  0.62099890     0.39500
C766        C  0.44480360  0.92875546  0.64105257     0.36400
C767        C  0.41706277  0.94345929  0.58085228     0.37100
C768        C  0.48752863  0.87888256  0.58169696     0.40300
N769        N  0.33909125  0.89308912  0.61543862    -0.37700
N770        N  0.38848010  0.88381124  0.57272796    -0.39300
N771        N  0.41572965  0.93892966  0.69101001    -0.37100
N772        N  0.46255124  0.93535621  0.64480605    -0.39500
N773        N  0.45367582  0.86432126  0.62840450    -0.39200
N774        N  0.50186437  0.86592683  0.58231595    -0.36900
N775        N  0.44799143  0.95641024  0.53217260    -0.37900
N776        N  0.40282549  0.95653702  0.58091003    -0.39600
C777        C  0.60125348  0.93605828  0.45312567    -0.04500
C778        C  0.60416271  0.91884394  0.43746186     0.09600
C779        C  0.58817739  0.90175618  0.43589033    -0.01900
C780        C  0.56957361  0.90150172  0.45034962    -0.00200
C781        C  0.56704662  0.91818377  0.46689936    -0.03800
C782        C  0.58288017  0.93575977  0.46784608     0.03300
C783        C  0.62469750  0.91826313  0.42326151     0.10100
C784        C  0.59111945  0.88426859  0.41948098     0.36000
C785        C  0.58096564  0.95323417  0.48443030     0.39400
C786        C  0.64420041  0.90785727  0.43117661    -0.04100
C787        C  0.66407679  0.90853958  0.41861167     0.03000
C788        C  0.66445151  0.91881892  0.39750951    -0.03700
C789        C  0.64463106  0.92884822  0.38943673     0.00000
C790        C  0.62496098  0.92884612  0.40244297    -0.02500
C791        C  0.64392713  0.89700693  0.45267008     0.36700
C792        C  0.64410650  0.93904641  0.36773795     0.40300
C793        C  0.68454596  0.90054798  0.42857396     0.39500
C794        C  0.60502060  0.94014012  0.39466663     0.36400
C795        C  0.61753547  0.95390074  0.45430621     0.37100
C796        C  0.55280677  0.88431174  0.44768442     0.40300
N797        N  0.70052903  0.89457091  0.43754593    -0.37700
N798        N  0.64366086  0.88834595  0.46979655    -0.39300
N799        N  0.64283750  0.94718620  0.35040730    -0.37100
N800        N  0.58912779  0.94925572  0.38857297    -0.39500
N801        N  0.59358274  0.87035254  0.40637572    -0.39200
N802        N  0.53942535  0.87061601  0.44546185    -0.36900
N803        N  0.57947699  0.96725253  0.49757380    -0.37900
N804        N  0.63055092  0.96809124  0.45515574    -0.39600
C805        C  0.61543779  0.90551532  0.63394192    -0.04500
C806        C  0.62073271  0.91278439  0.61233227     0.09600
C807        C  0.64266443  0.91995880  0.60764463    -0.01900
C808        C  0.65889452  0.92075294  0.62464236    -0.00200
C809        C  0.65331966  0.91465711  0.64664678    -0.03800
C810        C  0.63157118  0.90651119  0.65101927     0.03300
C811        C  0.60293948  0.91360253  0.59473616     0.10100
C812        C  0.64836925  0.92700572  0.58534815     0.36000
C813        C  0.62483040  0.90120752  0.67345459     0.39400
C814        C  0.58682212  0.93080954  0.59492507    -0.04100
C815        C  0.56950171  0.93118927  0.57899038     0.03000
C816        C  0.56849251  0.91468186  0.56211342    -0.03700
C817        C  0.58539605  0.89803497  0.56143406     0.00000
C818        C  0.60213920  0.89723448  0.57794510    -0.02500
C819        C  0.58816128  0.94827021  0.61155886     0.36700
C820        C  0.58633380  0.88222778  0.54320226     0.40300
C821        C  0.55246888  0.94836629  0.58049458     0.39500
C822        C  0.61859349  0.87945355  0.57775657     0.36400
C823        C  0.59303368  0.89767529  0.63875521     0.37100
C824        C  0.68141440  0.92770121  0.61931262     0.40300
N825        N  0.53892871  0.96211173  0.58174961    -0.37700
N826        N  0.58924658  0.96225515  0.62475579    -0.39300
N827        N  0.58723253  0.86972147  0.52857815    -0.37100
N828        N  0.63173791  0.86528693  0.57768203    -0.39500
N829        N  0.65287932  0.93255170  0.56752200    -0.39200
N830        N  0.69936380  0.93305051  0.61459562    -0.36900
N831        N  0.61847082  0.89720940  0.69113335    -0.37900
N832        N  0.57514034  0.89150209  0.64259782    -0.39600
C833        C  0.69231423  0.99717455  0.65083261    -0.04500
C834        C  0.67127265  0.00780143  0.65075475     0.09600
C835        C  0.65176185  0.99473408  0.65217742    -0.01900
C836        C  0.65325515  0.97188624  0.65765942    -0.00200
C837        C  0.67441222  0.96140696  0.65925583    -0.03800
C838        C  0.69380998  0.97399447  0.65416047     0.03300
C839        C  0.66995212  0.03253765  0.65445338     0.10100
C840        C  0.63011191  0.00538868  0.64991030     0.36000
C841        C  0.71565787  0.96338579  0.65389923     0.39400
C842        C  0.67596024  0.04783852  0.63771868    -0.04100
C843        C  0.67825053  0.07077895  0.64281827     0.03000
C844        C  0.67440580  0.07854532  0.66470795    -0.03700
C845        C  0.66740416  0.06321530  0.68112818     0.00000
C846        C  0.66506169  0.04048159  0.67600038    -0.02500
C847        C  0.68091095  0.03974780  0.61555015     0.36700
C848        C  0.66372527  0.07057773  0.70383699     0.40300
C849        C  0.68648558  0.08582149  0.62595824     0.39500
C850        C  0.65891462  0.02496547  0.69341225     0.36400
C851        C  0.71257627  0.01034927  0.64955880     0.37100
C852        C  0.63317042  0.96044478  0.66451387     0.40300
N853        N  0.69322956  0.09743225  0.61221387    -0.37700
N854        N  0.68503761  0.03326226  0.59790420    -0.39300
N855        N  0.66088131  0.07639276  0.72195353    -0.37100
N856        N  0.65397152  0.01255972  0.70722241    -0.39500
N857        N  0.61288255  0.01395466  0.64799712    -0.39200
N858        N  0.61672769  0.95217877  0.67029446    -0.36900
N859        N  0.73306855  0.95494504  0.65371454    -0.37900
N860        N  0.72873203  0.02086347  0.64871166    -0.39600
C861        C  0.35480993  0.04451933  0.65923943    -0.04500
C862        C  0.37576319  0.03373829  0.65865966     0.09600
C863        C  0.39536234  0.04667196  0.66079830    -0.01900
C864        C  0.39396615  0.06976001  0.66588606    -0.00200
C865        C  0.37286062  0.08026639  0.66808326    -0.03800
C866        C  0.35335461  0.06755431  0.66365840     0.03300
C867        C  0.37655556  0.00863037  0.65990382     0.10100
C868        C  0.41695426  0.03586279  0.65882679     0.36000
C869        C  0.33142094  0.07795818  0.66473751     0.39400
C870        C  0.37123630  0.99517143  0.64136406    -0.04100
C871        C  0.36671450  0.97211788  0.64407146     0.03000
C872        C  0.36772902  0.96227540  0.66537824    -0.03700
C873        C  0.37445087  0.97564538  0.68362573     0.00000
C874        C  0.37902726  0.99850044  0.68084596    -0.02500
C875        C  0.36935103  0.00536968  0.61967865     0.36700
C876        C  0.37550522  0.96617198  0.70574586     0.40300
C877        C  0.35906018  0.95923917  0.62523738     0.39500
C878        C  0.38493781  0.01199639  0.69996311     0.36400
C879        C  0.33451084  0.03155619  0.65682860     0.37100
C880        C  0.41419374  0.08196295  0.67074971     0.40300
N881        N  0.35281456  0.94940440  0.60993324    -0.37700
N882        N  0.36783570  0.01354135  0.60237826    -0.39300
N883        N  0.37626755  0.95863211  0.72337957    -0.37100
N884        N  0.38969215  0.02280908  0.71515032    -0.39500
N885        N  0.43416267  0.02717441  0.65716211    -0.39200
N886        N  0.43058874  0.09131922  0.67471213    -0.36900
N887        N  0.31395819  0.08623291  0.66576761    -0.37900
N888        N  0.31834094  0.02120047  0.65496353    -0.39600
C889        C  0.70060379  0.04556102  0.38931016    -0.04500
C890        C  0.68009564  0.03459214  0.38596439     0.09600
C891        C  0.66105916  0.04714344  0.38001675    -0.01900
C892        C  0.66298388  0.07016030  0.37529222    -0.00200
C893        C  0.68393891  0.08088522  0.37710491    -0.03800
C894        C  0.70256830  0.06848670  0.38485679     0.03300
C895        C  0.67989715  0.00959392  0.38479076     0.10100
C896        C  0.63973867  0.03600202  0.37763202     0.36000
C897        C  0.72430388  0.07899259  0.38697491     0.39400
C898        C  0.68046860  0.99652383  0.40421759    -0.04100
C899        C  0.68504900  0.97338367  0.40290148     0.03000
C900        C  0.68839353  0.96305203  0.38201377    -0.03700
C901        C  0.68657241  0.97611990  0.36252263     0.00000
C902        C  0.68239202  0.99917121  0.36393244    -0.02500
C903        C  0.67717043  0.00716048  0.42559763     0.36700
C904        C  0.68950710  0.96594177  0.34080340     0.40300
C905        C  0.68820443  0.96086146  0.42314006     0.39500
C906        C  0.68176247  0.01245159  0.34384509     0.36400
C907        C  0.72014649  0.03287333  0.39595276     0.37100
C908        C  0.64387851  0.08194795  0.36641130     0.40300
N909        N  0.69089217  0.95135549  0.43959346    -0.37700
N910        N  0.67447133  0.01571085  0.44263016    -0.39300
N911        N  0.69180123  0.95780858  0.32351041    -0.37100
N912        N  0.68127757  0.02308214  0.32786800    -0.39500
N913        N  0.62272414  0.02708267  0.37579686    -0.39200
N914        N  0.62833891  0.09078492  0.35914719    -0.36900
N915        N  0.74164502  0.08733270  0.38852579    -0.37900
N916        N  0.73569703  0.02272331  0.40125698    -0.39600
C917        C  0.34611683  0.25022343  0.35842123    -0.04500
C918        C  0.35153069  0.23345872  0.34284583     0.09600
C919        C  0.34986943  0.23816049  0.31996734    -0.01900
C920        C  0.34164525  0.25894286  0.31268744    -0.00200
C921        C  0.33522583  0.27554740  0.32827488    -0.03800
C922        C  0.33807843  0.27117253  0.35121851     0.03300
C923        C  0.35684325  0.21010782  0.35018355     0.10100
C924        C  0.35613651  0.22127457  0.30380624     0.36000
C925        C  0.33318897  0.28833647  0.36751145     0.39400
C926        C  0.33932901  0.19599771  0.35693654    -0.04100
C927        C  0.34311459  0.17296372  0.35949959     0.03000
C928        C  0.36443134  0.16356635  0.35492560    -0.03700
C929        C  0.38228262  0.17796912  0.34943993     0.00000
C930        C  0.37855900  0.20119557  0.34757144    -0.02500
C931        C  0.31695439  0.20498065  0.35978132     0.36700
C932        C  0.40392386  0.16901076  0.34336211     0.40300
C933        C  0.32454583  0.15872929  0.36565919     0.39500
C934        C  0.39681353  0.21588316  0.34167199     0.36400
C935        C  0.34872309  0.24578811  0.38191245     0.37100
C936        C  0.33887675  0.26258029  0.28905116     0.40300
N937        N  0.30973339  0.14742120  0.37061170    -0.37700
N938        N  0.29912775  0.21218419  0.36198691    -0.39300
N939        N  0.42138978  0.16259245  0.33807472    -0.37100
N940        N  0.41134201  0.22763292  0.33692949    -0.39500
N941        N  0.36133569  0.20785754  0.29096287    -0.39200
N942        N  0.33679689  0.26531155  0.27016391    -0.36900
N943        N  0.32932341  0.30204622  0.38050852    -0.37900
N944        N  0.35080001  0.24221456  0.40065553    -0.39600
C945        C  0.38048002  0.04763339  0.38212571    -0.04500
C946        C  0.38692245  0.03393594  0.36412541     0.09600
C947        C  0.39369957  0.04399516  0.34409155    -0.01900
C948        C  0.39171235  0.06727304  0.34131418    -0.00200
C949        C  0.38295749  0.08088186  0.35859231    -0.03800
C950        C  0.37803892  0.07091617  0.37929464     0.03300
C951        C  0.38212060  0.00930052  0.36468081     0.10100
C952        C  0.40113176  0.03019538  0.32568626     0.36000
C953        C  0.36776483  0.08377213  0.39692468     0.39400
C954        C  0.35974557  0.00207307  0.36342390    -0.04100
C955        C  0.35471767  0.97918705  0.36244297     0.03000
C956        C  0.37201926  0.96306171  0.36034232    -0.03700
C957        C  0.39450412  0.97035987  0.36161177     0.00000
C958        C  0.39941768  0.99325896  0.36482628    -0.02500
C959        C  0.34182309  0.01833687  0.36168256     0.36700
C960        C  0.41273446  0.95504473  0.35743726     0.40300
C961        C  0.33144280  0.97237302  0.36280985     0.39500
C962        C  0.42234557  0.00047508  0.36752376     0.36400
C963        C  0.37463030  0.03738473  0.40311095     0.37100
C964        C  0.39696961  0.07693796  0.31987869     0.40300
N965        N  0.31287724  0.96702861  0.36309546    -0.37700
N966        N  0.32765193  0.03137316  0.36003005    -0.39300
N967        N  0.42778985  0.94346329  0.35380091    -0.37100
N968        N  0.44063483  0.00623950  0.36980825    -0.39500
N969        N  0.40712966  0.01920813  0.31101995    -0.39200
N970        N  0.40104524  0.08458668  0.30273863    -0.36900
N971        N  0.35917892  0.09316849  0.41140673    -0.37900
N972        N  0.36990033  0.02910386  0.41977972    -0.39600
C973        C  0.40476133  0.14110707  0.41660642    -0.04500
C974        C  0.42731003  0.13519405  0.41327071     0.09600
C975        C  0.43415911  0.12642777  0.39263984    -0.01900
C976        C  0.41838059  0.12293000  0.37562248    -0.00200
C977        C  0.39556007  0.12811975  0.37911192    -0.03800
C978        C  0.38892573  0.13754914  0.39965353     0.03300
C979        C  0.44348643  0.13653167  0.43213300     0.10100
C980        C  0.45750459  0.12089879  0.38903340     0.36000
C981        C  0.36563999  0.14232101  0.40412672     0.39400
C982        C  0.44613062  0.11810953  0.44624611    -0.04100
C983        C  0.46104526  0.11909910  0.46430458     0.03000
C984        C  0.47432858  0.13839000  0.46799527    -0.03700
C985        C  0.47108388  0.15712860  0.45391967     0.00000
C986        C  0.45567466  0.15612990  0.43617712    -0.02500
C987        C  0.43336891  0.09800162  0.44205090     0.36700
C988        C  0.48359640  0.17751018  0.45725199     0.40300
C989        C  0.46184624  0.10034976  0.47942524     0.39500
C990        C  0.45236916  0.17525247  0.42188367     0.36400
C991        C  0.39782608  0.15038820  0.43779346     0.37100
C992        C  0.42594775  0.11480924  0.35425277     0.40300
N993        N  0.46232656  0.08537136  0.49145402    -0.37700
N994        N  0.42320230  0.08201837  0.43854161    -0.39300
N995        N  0.49339821  0.19389081  0.45986844    -0.37100
N996        N  0.44965977  0.19048293  0.41047624    -0.39500
N997        N  0.47614067  0.11653223  0.38617982    -0.39200
N998        N  0.43267796  0.10875038  0.33726174    -0.36900
N999        N  0.34718299  0.14593739  0.40864324    -0.37900
N1000       N  0.39238501  0.15780854  0.45471116    -0.39600
C1001       C  0.44004350  0.15167745  0.58373659    -0.04500
C1002       C  0.44148107  0.13545885  0.60057337     0.09600
C1003       C  0.45939169  0.12014190  0.60038450    -0.01900
C1004       C  0.47585067  0.12106648  0.58360463    -0.00200
C1005       C  0.47434530  0.13708485  0.56644173    -0.03800
C1006       C  0.45625612  0.15238289  0.56661833     0.03300
C1007       C  0.42401922  0.13410373  0.61846608     0.10100
C1008       C  0.46074806  0.10320394  0.61745109     0.36000
C1009       C  0.45369693  0.16826782  0.54871335     0.39400
C1010       C  0.40356129  0.12325706  0.61437397    -0.04100
C1011       C  0.38786063  0.12032876  0.63167691     0.03000
C1012       C  0.39270775  0.12772746  0.65347089    -0.03700
C1013       C  0.41326202  0.13869285  0.65742012     0.00000
C1014       C  0.42858599  0.14224403  0.63993447    -0.02500
C1015       C  0.39891648  0.11467215  0.59234963     0.36700
C1016       C  0.41972633  0.14463299  0.67979516     0.40300
C1017       C  0.36653425  0.11017989  0.62672388     0.39500
C1018       C  0.44943724  0.15378263  0.64412738     0.36400
C1019       C  0.42175080  0.16756525  0.58401910     0.37100
C1020       C  0.49465601  0.10578311  0.58445727     0.40300
N1021       N  0.34952864  0.10226758  0.62220676    -0.37700
N1022       N  0.39530662  0.10782153  0.57475641    -0.39300
N1023       N  0.42564187  0.14924978  0.69747813    -0.37100
N1024       N  0.46606556  0.16298844  0.64745202    -0.39500
N1025       N  0.46182013  0.08967119  0.63103363    -0.39200
N1026       N  0.50963868  0.09358224  0.58515574    -0.36900
N1027       N  0.45158325  0.18087244  0.53437576    -0.37900
N1028       N  0.40713065  0.18021588  0.58428092    -0.39600
C1029       C  0.59094458  0.11923576  0.43728811    -0.04500
C1030       C  0.60891284  0.13435282  0.43847824     0.09600
C1031       C  0.60884665  0.15101275  0.45504327    -0.01900
C1032       C  0.59114975  0.15229861  0.47060162    -0.00200
C1033       C  0.57299038  0.13722870  0.46937765    -0.03800
C1034       C  0.57284454  0.12097660  0.45226403     0.03300
C1035       C  0.62764460  0.13288646  0.42187940     0.10100
C1036       C  0.62711712  0.16679779  0.45608877     0.36000
C1037       C  0.55367158  0.10651127  0.44940172     0.39400
C1038       C  0.62418335  0.13983695  0.39981808    -0.04100
C1039       C  0.64111369  0.13692606  0.38370162     0.03000
C1040       C  0.66199241  0.12753571  0.38956985    -0.03700
C1041       C  0.66566242  0.12133007  0.41192099     0.00000
C1042       C  0.64849760  0.12374604  0.42790294    -0.02500
C1043       C  0.60288306  0.14958288  0.39361611     0.36700
C1044       C  0.68730776  0.11311535  0.41882829     0.40300
C1045       C  0.63619444  0.14211995  0.36079503     0.39500
C1046       C  0.65216002  0.11650699  0.45055254     0.36400
C1047       C  0.59124555  0.10167025  0.42069475     0.37100
C1048       C  0.59213078  0.16871740  0.48826809     0.40300
N1049       N  0.63137102  0.14611056  0.34265799    -0.37700
N1050       N  0.58584994  0.15727576  0.38871708    -0.25900
N1051       N  0.70450528  0.10685642  0.42498680    -0.37100
N1052       N  0.65507991  0.11076443  0.46863171    -0.39500
N1053       N  0.64174563  0.17933253  0.45689774    -0.39200
N1054       N  0.59295057  0.18181589  0.50236400    -0.36900
N1055       N  0.53831924  0.09508323  0.44700521    -0.37900
N1056       N  0.59160228  0.08765755  0.40747696    -0.39600
C1057       C  0.58669348  0.14649219  0.60176740    -0.04500
C1058       C  0.60537358  0.13241492  0.59851463     0.09600
C1059       C  0.60745142  0.12024683  0.57853755    -0.01900
C1060       C  0.59109164  0.12228867  0.56184268    -0.00200
C1061       C  0.57204455  0.13586856  0.56532703    -0.03800
C1062       C  0.56994439  0.14801662  0.58535716     0.03300
C1063       C  0.62286735  0.13029160  0.61618191     0.10100
C1064       C  0.62636184  0.10541103  0.57529479     0.36000
C1065       C  0.55017537  0.16145883  0.58945836     0.39400
C1066       C  0.61850206  0.11782262  0.63547715    -0.04100
C1067       C  0.63489741  0.11589736  0.65214491     0.03000
C1068       C  0.65633580  0.12537180  0.64918977    -0.03700
C1069       C  0.66063836  0.13787424  0.62979114     0.00000
C1070       C  0.64386181  0.14059598  0.61355624    -0.02500
C1071       C  0.59714428  0.10672340  0.63805354     0.36700
C1072       C  0.68258616  0.14712230  0.62584430     0.40300
C1073       C  0.62901484  0.10538432  0.67292589     0.39500
C1074       C  0.64824250  0.15379907  0.59391147     0.36400
C1075       C  0.58472183  0.15934814  0.62209385     0.37100
C1076       C  0.59429891  0.11103133  0.54072161     0.40300
N1077       N  0.62347281  0.09740434  0.68948894    -0.37700
N1078       N  0.58014046  0.09781591  0.64007427    -0.39300
N1079       N  0.69999069  0.15456651  0.62207307    -0.37100
N1080       N  0.65165821  0.16426567  0.57818070    -0.39500
N1081       N  0.64145483  0.09357523  0.57278315    -0.39200
N1082       N  0.59689670  0.10223558  0.52379347    -0.36900
N1083       N  0.53435512  0.17210723  0.59274014    -0.37900
N1084       N  0.58321203  0.16955300  0.63834910    -0.39600
C1085       C  0.42620031  0.40064990  0.90460071    -0.04500
C1086       C  0.42018072  0.42239196  0.91098932     0.09600
C1087       C  0.39862710  0.42658454  0.91950153    -0.01900
C1088       C  0.38323848  0.40898685  0.92200726    -0.00200
C1089       C  0.38940356  0.38695768  0.91624410    -0.03800
C1090       C  0.41102321  0.38297731  0.90746626     0.03300
C1091       C  0.43723392  0.44054045  0.91044240     0.10100
C1092       C  0.39252271  0.44904312  0.92609400     0.36000
C1093       C  0.41880442  0.36051652  0.90348885     0.39400
C1094       C  0.44157463  0.45219059  0.89070167    -0.04100
C1095       C  0.45804670  0.46900243  0.89016058     0.03000
C1096       C  0.47041050  0.47447485  0.90962905    -0.03700
C1097       C  0.46544150  0.46273260  0.92960751     0.00000
C1098       C  0.44928664  0.44568524  0.92977386    -0.02500
C1099       C  0.42910383  0.44661238  0.87082294     0.36700
C1100       C  0.47668400  0.46779843  0.95032872     0.40300
C1101       C  0.46173607  0.48062726  0.86941208     0.39500
C1102       C  0.44528914  0.43295070  0.94986301     0.36400
C1103       C  0.44845851  0.39637193  0.89590831     0.37100
C1104       C  0.36116217  0.41381355  0.93057207     0.40300
N1105       N  0.46454784  0.48966468  0.85270479    -0.37700
N1106       N  0.41916855  0.44205336  0.85500273    -0.39300
N1107       N  0.48528758  0.47182033  0.96704623    -0.37100
N1108       N  0.44214879  0.42268545  0.96578498    -0.39500
N1109       N  0.38777634  0.46697570  0.93139581    -0.39200
N1110       N  0.34367198  0.41853789  0.93734595    -0.36900
N1111       N  0.42639430  0.34299358  0.90077593    -0.37900
N1112       N  0.46619984  0.39302133  0.88895836    -0.39600
C1113       C  0.58022798  0.43495132  0.92767073    -0.04500
C1114       C  0.59755168  0.43311505  0.91191788     0.09600
C1115       C  0.59889171  0.44857703  0.89443333    -0.01900
C1116       C  0.58336144  0.46628502  0.89304346    -0.00200
C1117       C  0.56636964  0.46877619  0.90935731    -0.03800
C1118       C  0.56461187  0.45252320  0.92634242     0.03300
C1119       C  0.61462430  0.41498070  0.91402891     0.10100
C1120       C  0.61649358  0.44628807  0.87797825     0.36000
C1121       C  0.54631935  0.45322512  0.94216351     0.39400
C1122       C  0.60990206  0.39334809  0.90633522    -0.04100
C1123       C  0.62557305  0.37603517  0.90933839     0.03000
C1124       C  0.64641007  0.38029785  0.91956699    -0.03700
C1125       C  0.65108247  0.40210836  0.92717250     0.00000
C1126       C  0.63522713  0.41932341  0.92443717    -0.02500
C1127       C  0.58873764  0.38890947  0.89550423     0.36700
C1128       C  0.67241852  0.40726785  0.93716331     0.40300
C1129       C  0.61941646  0.35353579  0.90332105     0.39500
C1130       C  0.64005508  0.44163919  0.93232008     0.36400
C1131       C  0.57860443  0.41872791  0.94540999     0.37100
C1132       C  0.58532617  0.48202605  0.87495637     0.40300
N1133       N  0.61372510  0.33572041  0.89874686    -0.37700
N1134       N  0.57185931  0.38541448  0.88684615    -0.39300
N1135       N  0.68936622  0.41215300  0.94496201    -0.37100
N1136       N  0.64384132  0.45947984  0.93852352    -0.39500
N1137       N  0.63059884  0.44439174  0.86493425    -0.39200
N1138       N  0.58693295  0.49437065  0.86033889    -0.36900
N1139       N  0.53179655  0.45358226  0.95486358    -0.37900
N1140       N  0.57732578  0.40576545  0.95952166    -0.39600
C1141       C  0.43959270  0.58806299  0.89292964    -0.04500
C1142       C  0.43913384  0.60431027  0.90980433     0.09600
C1143       C  0.45568398  0.60421520  0.92638860    -0.01900
C1144       C  0.47289862  0.58812184  0.92597418    -0.00200
C1145       C  0.47347392  0.57156429  0.90911844    -0.03800
C1146       C  0.45647718  0.57159231  0.89268456     0.03300
C1147       C  0.42142908  0.62192940  0.91005369     0.10100
C1148       C  0.45489390  0.62081379  0.94394734     0.36000
C1149       C  0.45564313  0.55424971  0.87591408     0.39400
C1150       C  0.40042868  0.61769773  0.91976636    -0.04100
C1151       C  0.38456128  0.63499316  0.92187193     0.03000
C1152       C  0.38951217  0.65661206  0.91408642    -0.03700
C1153       C  0.41026378  0.66050524  0.90353621     0.00000
C1154       C  0.42617132  0.64325151  0.90163630    -0.02500
C1155       C  0.39529793  0.59554890  0.92778683     0.36700
C1156       C  0.41617660  0.68259379  0.89608612     0.40300
C1157       C  0.36293404  0.63032478  0.93159228     0.39500
C1158       C  0.44777689  0.64754707  0.89155779     0.36400
C1159       C  0.42257467  0.58834744  0.87581263     0.37100
C1160       C  0.49021938  0.58915189  0.94273009     0.40300
N1161       N  0.34565802  0.62612649  0.93913155    -0.37700
N1162       N  0.39121817  0.57783446  0.93407770    -0.39300
N1163       N  0.42189606  0.70002878  0.89033478    -0.37100
N1164       N  0.46504748  0.65096174  0.88360952    -0.39500
N1165       N  0.45412014  0.63408255  0.95789343    -0.39200
N1166       N  0.50389192  0.59015117  0.95623717    -0.36900
N1167       N  0.45481401  0.54046417  0.86249294    -0.37900
N1168       N  0.40898334  0.58863371  0.86218328    -0.39600
C1169       C  0.60369513  0.58819794  0.89134855    -0.04500
C1170       C  0.60695441  0.60131040  0.91045226     0.09600
C1171       C  0.59355510  0.59777164  0.92932003    -0.01900
C1172       C  0.57667004  0.58140230  0.92909518    -0.00200
C1173       C  0.57291420  0.56817018  0.90977080    -0.03800
C1174       C  0.58699585  0.57157641  0.89099604     0.03300
C1175       C  0.62462381  0.61893894  0.91095070     0.10100
C1176       C  0.59715617  0.61124155  0.94905367     0.36000
C1177       C  0.58507918  0.55765613  0.87139076     0.39400
C1178       C  0.61992400  0.64048198  0.90299956    -0.04100
C1179       C  0.63577374  0.65768441  0.90544211     0.03000
C1180       C  0.65655967  0.65344837  0.91576206    -0.03700
C1181       C  0.66143370  0.63160595  0.92308550     0.00000
C1182       C  0.64554228  0.61446140  0.92067422    -0.02500
C1183       C  0.59841961  0.64504518  0.89289528     0.36700
C1184       C  0.68302232  0.62644386  0.93258198     0.40300
C1185       C  0.62983436  0.68006570  0.89883499     0.39500
C1186       C  0.65057590  0.59215430  0.92839118     0.36400
C1187       C  0.61768662  0.59187562  0.87200975     0.37100
C1188       C  0.56328681  0.57860759  0.94899756     0.40300
N1189       N  0.62435597  0.69780688  0.89373782    -0.37700
N1190       N  0.58125663  0.64860548  0.88481708    -0.39300
N1191       N  0.70022579  0.62163534  0.93989207    -0.37100
N1192       N  0.65454756  0.57434644  0.93453116    -0.39500
N1193       N  0.60012402  0.62199361  0.96473508    -0.39200
N1194       N  0.55291776  0.57640694  0.96507369    -0.36900
N1195       N  0.58374565  0.54665346  0.85565490    -0.37900
N1196       N  0.62883621  0.59491885  0.85660446    -0.39600
C1197       C  0.69149960  0.68310168  0.25040362    -0.04500
C1198       C  0.68880659  0.69825212  0.23273472     0.09600
C1199       C  0.69103047  0.72129833  0.23697278    -0.01900
C1200       C  0.69714458  0.72901493  0.25830543    -0.00200
C1201       C  0.70187484  0.71369328  0.27551892    -0.03800
C1202       C  0.69829336  0.69071131  0.27157851     0.03300
C1203       C  0.68611484  0.68999603  0.20923048     0.10100
C1204       C  0.68800309  0.73710176  0.21905146     0.36000
C1205       C  0.70148170  0.67480574  0.28936255     0.39400
C1206       C  0.66606340  0.69350609  0.19739478    -0.04100
C1207       C  0.66514914  0.68951708  0.17420604     0.03000
C1208       C  0.68405109  0.68099894  0.16278157    -0.03700
C1209       C  0.70350887  0.67575407  0.17518872     0.00000
C1210       C  0.70459429  0.68045691  0.19811523    -0.02500
C1211       C  0.64662340  0.70215737  0.20899958     0.36700
C1212       C  0.72302759  0.66641597  0.16417911     0.40300
C1213       C  0.64542560  0.69632020  0.16212092     0.39500
C1214       C  0.72528075  0.67659379  0.21006773     0.36400
C1215       C  0.68771433  0.65956983  0.24657934     0.37100
C1216       C  0.69950214  0.75275240  0.26203754     0.40300
N1217       N  0.62941455  0.70224088  0.15315488    -0.37700
N1218       N  0.63111925  0.70908418  0.21825583    -0.39300
N1219       N  0.73861503  0.65899086  0.15545373    -0.37100
N1220       N  0.74173113  0.67351262  0.21965683    -0.39500
N1221       N  0.68553411  0.74969500  0.20476300    -0.39200
N1222       N  0.70110246  0.77174575  0.26483658    -0.36900
N1223       N  0.70404984  0.66211676  0.30355017    -0.37900
N1224       N  0.68468440  0.64080423  0.24345678    -0.39600
C1225       C  0.66404265  0.68721805  0.04221530    -0.04500
C1226       C  0.66466072  0.66539737  0.03353822     0.09600
C1227       C  0.66736917  0.64727061  0.04814601    -0.01900
C1228       C  0.67177965  0.65103381  0.07095283    -0.00200
C1229       C  0.67250187  0.67303998  0.07946065    -0.03800
C1230       C  0.66776117  0.69101769  0.06497880     0.03300
C1231       C  0.66673082  0.66235257  0.00885204     0.10100
C1232       C  0.66682658  0.62478922  0.03934432     0.36000
C1233       C  0.66769233  0.71375435  0.07326554     0.39400
C1234       C  0.68822379  0.65971076  0.99956643    -0.04100
C1235       C  0.69170269  0.66314280  0.97671017     0.03000
C1236       C  0.67371976  0.66944784  0.96274495    -0.03700
C1237       C  0.65190110  0.67061263  0.97184336     0.00000
C1238       C  0.64839649  0.66645577  0.99472675    -0.02500
C1239       C  0.70716100  0.65511759  0.01388549     0.36700
C1240       C  0.63342226  0.67863788  0.95860595     0.40300
C1241       C  0.71428151  0.66170497  0.96790396     0.39500
C1242       C  0.62609702  0.66769999  0.00412123     0.36400
C1243       C  0.66110027  0.70600313  0.02737925     0.37100
C1244       C  0.67771607  0.63230576  0.08481488     0.40300
N1245       N  0.73229150  0.66069106  0.96092609    -0.37700
N1246       N  0.72221388  0.65147632  0.02535176    -0.39300
N1247       N  0.61832291  0.68536592  0.94869105    -0.37100
N1248       N  0.60830874  0.66858800  0.01165355    -0.39500
N1249       N  0.66634710  0.60686577  0.03227364    -0.39200
N1250       N  0.68260429  0.61691874  0.09525738    -0.36900
N1251       N  0.66770804  0.73187369  0.07984376    -0.37900
N1252       N  0.65879148  0.72093053  0.01549964    -0.39600
C1253       C  0.66504417  0.34982835  0.04754762    -0.04500
C1254       C  0.66470887  0.37049702  0.03654288     0.09600
C1255       C  0.66843047  0.39017520  0.04880714    -0.01900
C1256       C  0.67532908  0.38905172  0.07123731    -0.00200
C1257       C  0.67673753  0.36821313  0.08208105    -0.03800
C1258       C  0.67034627  0.34875014  0.07029274     0.03300
C1259       C  0.66488199  0.37092004  0.01161826     0.10100
C1260       C  0.66637884  0.41151855  0.03782035     0.36000
C1261       C  0.67002234  0.32728984  0.08135125     0.39400
C1262       C  0.64531700  0.36689283  0.99919941    -0.04100
C1263       C  0.64665765  0.36294923  0.97601037     0.03000
C1264       C  0.66762527  0.36340241  0.96508171    -0.03700
C1265       C  0.68695210  0.36900985  0.97750350     0.00000
C1266       C  0.68555728  0.37272330  0.00053514    -0.02500
C1267       C  0.62394987  0.36598979  0.01053569     0.36700
C1268       C  0.70867940  0.37012898  0.96674792     0.40300
C1269       C  0.62668317  0.35673386  0.96402528     0.39500
C1270       C  0.70573191  0.37722811  0.01311864     0.36400
C1271       C  0.66154597  0.32943326  0.03506668     0.37100
C1272       C  0.68318369  0.40912419  0.08196616     0.40300
N1273       N  0.61041819  0.35172134  0.95497102    -0.37700
N1274       N  0.60692198  0.36531721  0.01964802    -0.39300
N1275       N  0.72600223  0.37095430  0.95821504    -0.37100
N1276       N  0.72175104  0.38084078  0.02321749    -0.39500
N1277       N  0.66457684  0.42851953  0.02901777    -0.39200
N1278       N  0.68961791  0.42553508  0.08971691    -0.36900
N1279       N  0.66973038  0.31022131  0.09020567    -0.37900
N1280       N  0.65893975  0.31315665  0.02509467    -0.39600
C1281       C  0.38095081  0.65248936  0.04494113    -0.04500
C1282       C  0.38519249  0.67126199  0.03153035     0.09600
C1283       C  0.38962479  0.69189322  0.04186533    -0.01900
C1284       C  0.38785242  0.69411857  0.06513425    -0.00200
C1285       C  0.38055773  0.67601522  0.07838511    -0.03800
C1286       C  0.37791506  0.65492450  0.06815971     0.03300
C1287       C  0.38142606  0.67026664  0.00678376     0.10100
C1288       C  0.39433917  0.71134500  0.02842902     0.36000
C1289       C  0.36965491  0.63614516  0.08067512     0.39400
C1290       C  0.35941685  0.66838306  0.99857873    -0.04100
C1291       C  0.35512919  0.67021930  0.97563476     0.03000
C1292       C  0.37260656  0.67524562  0.96051283    -0.03700
C1293       C  0.39472643  0.67676965  0.96874495     0.00000
C1294       C  0.39914679  0.67350022  0.99162228    -0.02500
C1295       C  0.34086583  0.66598680  0.01396037     0.36700
C1296       C  0.41277717  0.68403898  0.95452884     0.40300
C1297       C  0.33233491  0.66784466  0.96776077     0.39500
C1298       C  0.42189495  0.67457603  0.99980864     0.36400
C1299       C  0.37823351  0.63087519  0.03451641     0.37100
C1300       C  0.39198879  0.71568697  0.07525363     0.40300
N1301       N  0.31414944  0.66596119  0.96154532    -0.37700
N1302       N  0.32612053  0.66419850  0.02628160    -0.39300
N1303       N  0.42774299  0.69020527  0.94405935    -0.37100
N1304       N  0.44003603  0.67551619  0.00635090    -0.39500
N1305       N  0.39809535  0.72685863  0.01772201    -0.39200
N1306       N  0.39523421  0.73290507  0.08327167    -0.36900
N1307       N  0.36282849  0.62068149  0.08982723    -0.37900
N1308       N  0.37606850  0.61365719  0.02614579    -0.39600
C1309       C  0.35399203  0.36212438  0.25230329    -0.04500
C1310       C  0.34526571  0.35393715  0.23213658     0.09600
C1311       C  0.32947519  0.33647310  0.23250911    -0.01900
C1312       C  0.32225247  0.32747080  0.25286246    -0.00200
C1313       C  0.33082479  0.33577149  0.27303051    -0.03800
C1314       C  0.34677186  0.35303991  0.27272830     0.03300
C1315       C  0.35157587  0.36400563  0.21025013     0.10100
C1316       C  0.32052236  0.32789485  0.21181942     0.36000
C1317       C  0.35563295  0.36145299  0.29347776     0.39400
C1318       C  0.37019853  0.35588906  0.19831555    -0.04100
C1319       C  0.37233375  0.36025461  0.17532672     0.03000
C1320       C  0.35576402  0.37279770  0.16415767    -0.03700
C1321       C  0.33806190  0.38233637  0.17673435     0.00000
C1322       C  0.33642993  0.37848870  0.19974468    -0.02500
C1323       C  0.38632531  0.34176058  0.20944692     0.36700
C1324       C  0.32022756  0.39443364  0.16575954     0.40300
C1325       C  0.39010874  0.34946285  0.16297971     0.39500
C1326       C  0.31820804  0.38818231  0.21246873     0.36400
C1327       C  0.37021145  0.37997292  0.25199418     0.37100
C1328       C  0.30579452  0.30977527  0.25306116     0.40300
N1329       N  0.40441404  0.34031833  0.15374189    -0.37700
N1330       N  0.39920291  0.33053727  0.21837927    -0.39300
N1331       N  0.30586294  0.40394323  0.15708422    -0.37100
N1332       N  0.30375663  0.39592755  0.22271354    -0.39500
N1333       N  0.31342916  0.32119534  0.19525189    -0.39200
N1334       N  0.29265467  0.29567602  0.25318855    -0.36900
N1335       N  0.36262536  0.36807984  0.31011469    -0.37900
N1336       N  0.38320232  0.39420343  0.25175620    -0.39600
C1337       C  0.37236714  0.39915444  0.04770727    -0.04500
C1338       C  0.37450220  0.37997706  0.03424546     0.09600
C1339       C  0.37409066  0.35877341  0.04422798    -0.01900
C1340       C  0.37042143  0.35667360  0.06722332    -0.00200
C1341       C  0.36706286  0.37579399  0.08069506    -0.03800
C1342       C  0.36841006  0.39710313  0.07082506     0.03300
C1343       C  0.37410392  0.38143194  0.00933286     0.10100
C1344       C  0.37604327  0.33893345  0.03052368     0.36000
C1345       C  0.36364858  0.41687458  0.08380777     0.39400
C1346       C  0.39345995  0.37665200  0.99673964    -0.04100
C1347       C  0.39180293  0.37176633  0.97377527     0.03000
C1348       C  0.37071345  0.37194195  0.96318467    -0.03700
C1349       C  0.35161692  0.37851120  0.97562169     0.00000
C1350       C  0.35337422  0.38343605  0.99844755    -0.02500
C1351       C  0.41489425  0.37538008  0.00784723     0.36700
C1352       C  0.32971515  0.37883258  0.96527963     0.40300
C1353       C  0.41154553  0.36441501  0.96191818     0.39500
C1354       C  0.33349083  0.38910244  0.01112498     0.36400
C1355       C  0.37312196  0.42095872  0.03750345     0.37100
C1356       C  0.36902234  0.33456536  0.07682816     0.40300
N1357       N  0.42773195  0.35843959  0.95319440    -0.37700
N1358       N  0.43195758  0.37433487  0.01678829    -0.39300
N1359       N  0.31225105  0.37900055  0.95706416    -0.37100
N1360       N  0.31767122  0.39367909  0.02125480    -0.39500
N1361       N  0.37754062  0.32316648  0.01953502    -0.39200
N1362       N  0.36786579  0.31695332  0.08447170    -0.36900
N1363       N  0.35966653  0.43295582  0.09367849    -0.37900
N1364       N  0.37367807  0.43835704  0.02933206    -0.39600
C1365       C  0.46132988  0.43569599  0.14572851    -0.04500
C1366       C  0.44589607  0.43442217  0.12816988     0.09600
C1367       C  0.44732871  0.44956236  0.11044505    -0.01900
C1368       C  0.46332540  0.46674913  0.11079053    -0.00200
C1369       C  0.47887051  0.46840308  0.12853829    -0.03800
C1370       C  0.47793819  0.45239498  0.14583515     0.03300
C1371       C  0.42654605  0.41873143  0.12921959     0.10100
C1372       C  0.43188211  0.44762918  0.09198003     0.36000
C1373       C  0.49411199  0.45275014  0.16371939     0.39400
C1374       C  0.40622867  0.42613113  0.13849732    -0.04100
C1375       C  0.38686976  0.41294336  0.13679211     0.03000
C1376       C  0.38777107  0.39178414  0.12644119    -0.03700
C1377       C  0.40851781  0.38398067  0.11807696     0.00000
C1378       C  0.42775676  0.39752682  0.11925649    -0.02500
C1379       C  0.40513375  0.44784516  0.14910180     0.36700
C1380       C  0.41038112  0.36191991  0.10855421     0.40300
C1381       C  0.36575715  0.42232923  0.14392234     0.39500
C1382       C  0.44875479  0.38988767  0.10984791     0.36400
C1383       C  0.45985342  0.41990871  0.16383680     0.37100
C1384       C  0.46272608  0.48333986  0.09333705     0.40300
N1385       N  0.34933561  0.43095294  0.14939199    -0.37700
N1386       N  0.40437712  0.46515159  0.15755744    -0.39300
N1387       N  0.41263224  0.34426037  0.10115470    -0.37100
N1388       N  0.46550787  0.38381535  0.10231254    -0.39500
N1389       N  0.41960480  0.44590369  0.07726626    -0.39200
N1390       N  0.46208298  0.49655943  0.07941862    -0.36900
N1391       N  0.50693282  0.45293342  0.17806806    -0.37900
N1392       N  0.45861133  0.40729746  0.17826409    -0.39600
C1393       C  0.60889617  0.45463780  0.11087657    -0.04500
C1394       C  0.61357138  0.44282677  0.13046134     0.09600
C1395       C  0.60094637  0.44701538  0.14971508    -0.01900
C1396       C  0.58294601  0.46226043  0.14925022    -0.00200
C1397       C  0.57773953  0.47418568  0.12945106    -0.03800
C1398       C  0.59120477  0.47025775  0.11028081     0.03300
C1399       C  0.63094753  0.42485999  0.13036949     0.10100
C1400       C  0.60652008  0.43539727  0.17007374     0.36000
C1401       C  0.58723273  0.48213069  0.08972928     0.39400
C1402       C  0.65305475  0.42946305  0.13684487    -0.04100
C1403       C  0.66952547  0.41262326  0.13573679     0.03000
C1404       C  0.66406526  0.39110619  0.12779504    -0.03700
C1405       C  0.64172629  0.38651933  0.12171687     0.00000
C1406       C  0.62523869  0.40326612  0.12322166    -0.02500
C1407       C  0.65897950  0.45179533  0.14387368     0.36700
C1408       C  0.63545838  0.36454490  0.11408877     0.40300
C1409       C  0.69247020  0.41821449  0.14081986     0.39500
C1410       C  0.60229644  0.39840576  0.11721384     0.36400
C1411       C  0.62246330  0.45060593  0.09125067     0.37100
C1412       C  0.56955182  0.46477396  0.16921119     0.40300
N1413       N  0.71065112  0.42346203  0.14462350    -0.37700
N1414       N  0.66373580  0.46962692  0.14939748    -0.39300
N1415       N  0.62987659  0.34708574  0.10817816    -0.37100
N1416       N  0.58396056  0.39462524  0.11248893    -0.39500
N1417       N  0.61113189  0.42621756  0.18629468    -0.39200
N1418       N  0.55901144  0.46660624  0.18524456    -0.36900
N1419       N  0.58416345  0.49138404  0.07318974    -0.37900
N1420       N  0.63335933  0.44734871  0.07567981    -0.39600
C1421       C  0.45233367  0.59612159  0.14937407    -0.04500
C1422       C  0.44092728  0.60173141  0.12979890     0.09600
C1423       C  0.44547194  0.58989980  0.11009141    -0.01900
C1424       C  0.46176106  0.57280132  0.10971939    -0.00200
C1425       C  0.47381859  0.56715958  0.12931412    -0.03800
C1426       C  0.46859650  0.57900200  0.14928500     0.03300
C1427       C  0.42435109  0.62051718  0.12968397     0.10100
C1428       C  0.43321469  0.59545402  0.09006977     0.36000
C1429       C  0.47998614  0.57420583  0.16997590     0.39400
C1430       C  0.43077768  0.64167209  0.12196526    -0.04100
C1431       C  0.41479475  0.65886231  0.11994122     0.03000
C1432       C  0.39213788  0.65505793  0.12550999    -0.03700
C1433       C  0.38604520  0.63415184  0.13444510     0.00000
C1434       C  0.40211000  0.61699416  0.13652660    -0.02500
C1435       C  0.45395181  0.64567790  0.11612211     0.36700
C1436       C  0.36301131  0.62945302  0.13999301     0.40300
C1437       C  0.42195199  0.68070783  0.11283278     0.39500
C1438       C  0.39568615  0.59544986  0.14524308     0.36400
C1439       C  0.44741862  0.60828595  0.16967319     0.37100
C1440       C  0.46572135  0.56118286  0.08893041     0.40300
N1441       N  0.42824133  0.69807865  0.10747866    -0.37700
N1442       N  0.47246996  0.64878799  0.11153809    -0.39300
N1443       N  0.34478786  0.62475667  0.14432945    -0.37100
N1444       N  0.39062039  0.57828378  0.15228536    -0.39500
N1445       N  0.42337544  0.59996813  0.07418674    -0.39200
N1446       N  0.46880114  0.55211886  0.07221978    -0.36900
N1447       N  0.48888372  0.57048150  0.18659904    -0.37900
N1448       N  0.44344567  0.61797698  0.18583877    -0.39600
C1449       C  0.58614578  0.60588806  0.14415744    -0.04500
C1450       C  0.60133056  0.60785427  0.12641328     0.09600
C1451       C  0.60054977  0.59257756  0.10867655    -0.01900
C1452       C  0.58542417  0.57460365  0.10919504    -0.00200
C1453       C  0.57028121  0.57216945  0.12725775    -0.03800
C1454       C  0.57051540  0.58833282  0.14452526     0.03300
C1455       C  0.61905281  0.62534288  0.12693254     0.10100
C1456       C  0.61544511  0.59542740  0.08984757     0.36000
C1457       C  0.55436017  0.58748014  0.16248629     0.39400
C1458       C  0.63960508  0.62083246  0.13737008    -0.04100
C1459       C  0.65701541  0.63658528  0.13667314     0.03000
C1460       C  0.65392251  0.65714710  0.12570157    -0.03700
C1461       C  0.63286034  0.66197646  0.11615040     0.00000
C1462       C  0.61561324  0.64601750  0.11652699    -0.02500
C1463       C  0.64306753  0.59950701  0.14810409     0.36700
C1464       C  0.62862614  0.68353497  0.10632271     0.40300
C1465       C  0.67864361  0.63060670  0.14559001     0.39500
C1466       C  0.59442215  0.65063776  0.10582597     0.36400
C1467       C  0.58664094  0.62211360  0.16203185     0.37100
C1468       C  0.58621566  0.55833858  0.09135165     0.40300
N1469       N  0.69573037  0.62503217  0.15262281    -0.37700
N1470       N  0.64575284  0.58246630  0.15661061    -0.39300
N1471       N  0.62464910  0.70074198  0.09868823    -0.37100
N1472       N  0.57754400  0.65426729  0.09720716    -0.39500
N1473       N  0.62719029  0.59786151  0.07477079    -0.39200
N1474       N  0.58695820  0.54546464  0.07704046    -0.36900
N1475       N  0.54150777  0.58690965  0.17685160    -0.37900
N1476       N  0.58710429  0.63512441  0.17622114    -0.39600
C1477       C  0.81549048  0.33386890  0.33173872    -0.04500
C1478       C  0.81579919  0.34392810  0.35294597     0.09600
C1479       C  0.79554961  0.34881238  0.36394348    -0.01900
C1480       C  0.77501580  0.34305385  0.35399723    -0.00200
C1481       C  0.77477794  0.33235161  0.33311920    -0.03800
C1482       C  0.79503940  0.32806573  0.32186030     0.03300
C1483       C  0.83779567  0.34784771  0.36387580     0.10100
C1484       C  0.79594537  0.35930286  0.38562008     0.36000
C1485       C  0.79490600  0.31676043  0.30053617     0.39400
C1486       C  0.85041296  0.36678615  0.35835225    -0.04100
C1487       C  0.87355227  0.36735464  0.36284743     0.03000
C1488       C  0.88402146  0.34912094  0.37348155    -0.03700
C1489       C  0.87076184  0.33095269  0.38061238     0.00000
C1490       C  0.84771176  0.33048371  0.37602932    -0.02500
C1491       C  0.83980012  0.38492235  0.34646640     0.36700
C1492       C  0.88107076  0.31180058  0.39112382     0.40300
C1493       C  0.88662188  0.38543456  0.35382341     0.39500
C1494       C  0.83443101  0.31132008  0.38231693     0.36400
C1495       C  0.83636359  0.32881556  0.32043758     0.37100
C1496       C  0.75411973  0.34811703  0.36515465     0.40300
N1497       N  0.89615788  0.40011616  0.34586598    -0.37700
N1498       N  0.83129232  0.39935051  0.33697772    -0.39300
N1499       N  0.88925088  0.29646134  0.39941303    -0.37100
N1500       N  0.82378414  0.29606430  0.38727719    -0.39500
N1501       N  0.79629404  0.36764874  0.40294706    -0.39200
N1502       N  0.73738835  0.35221116  0.37394751    -0.36900
N1503       N  0.79480105  0.30769150  0.28356623    -0.37900
N1504       N  0.85307697  0.32480949  0.31156749    -0.39600
C1505       C  0.67977839  0.35804551  0.20031910    -0.04500
C1506       C  0.70062995  0.36170795  0.21043566     0.09600
C1507       C  0.71813283  0.37115883  0.19802773    -0.01900
C1508       C  0.71560053  0.37464339  0.17503243    -0.00200
C1509       C  0.69536224  0.36885363  0.16421159    -0.03800
C1510       C  0.67722991  0.36110243  0.17720680     0.03300
C1511       C  0.70557418  0.35173075  0.23264117     0.10100
C1512       C  0.73931168  0.37584290  0.20874093     0.36000
C1513       C  0.65691691  0.35329540  0.16685255     0.39400
C1514       C  0.71239460  0.32922735  0.23375950    -0.04100
C1515       C  0.71910813  0.31993366  0.25413786     0.03000
C1516       C  0.71890678  0.33304999  0.27362863    -0.03700
C1517       C  0.71164047  0.35545218  0.27258778     0.00000
C1518       C  0.70484275  0.36471426  0.25214913    -0.02500
C1519       C  0.71294077  0.31576090  0.21372296     0.36700
C1520       C  0.71107826  0.36893752  0.29258332     0.40300
C1521       C  0.72741418  0.29722197  0.25476697     0.39500
C1522       C  0.69712631  0.38757201  0.25110712     0.36400
C1523       C  0.66139155  0.34964949  0.21358055     0.37100
C1524       C  0.73461817  0.38242834  0.16226549     0.40300
N1525       N  0.73415081  0.27915270  0.25525576    -0.37700
N1526       N  0.71329073  0.30510299  0.19769652    -0.39300
N1527       N  0.71070887  0.37964857  0.30857493    -0.37100
N1528       N  0.69086673  0.40579284  0.25027442    -0.39500
N1529       N  0.75615255  0.37955187  0.21738278    -0.39200
N1530       N  0.74989589  0.38849525  0.15216715    -0.36900
N1531       N  0.64047003  0.34636855  0.15957398    -0.37900
N1532       N  0.64673235  0.34304227  0.22422167    -0.39600
C1533       C  0.68618211  0.24993632  0.34053356    -0.04500
C1534       C  0.70103408  0.23237847  0.34558769     0.09600
C1535       C  0.72429620  0.23580861  0.34357091    -0.01900
C1536       C  0.73264958  0.25647018  0.33625858    -0.00200
C1537       C  0.71777304  0.27396014  0.33064429    -0.03800
C1538       C  0.69447456  0.27055963  0.33288791     0.03300
C1539       C  0.69245593  0.20949554  0.35082341     0.10100
C1540       C  0.73968170  0.21769619  0.34825091     0.36000
C1541       C  0.67895803  0.28830729  0.32745757     0.39400
C1542       C  0.68451500  0.19589424  0.33347907    -0.04100
C1543       C  0.68088287  0.17301183  0.33705306     0.03000
C1544       C  0.68553880  0.16326421  0.35798464    -0.03700
C1545       C  0.69208671  0.17726430  0.37574202     0.00000
C1546       C  0.69508856  0.20036718  0.37222910    -0.02500
C1547       C  0.68165978  0.20515172  0.31143257     0.36700
C1548       C  0.69820184  0.16788574  0.39698063     0.40300
C1549       C  0.67381705  0.15920540  0.31854704     0.39500
C1550       C  0.70226682  0.21461999  0.39031809     0.36400
C1551       C  0.66231096  0.24661587  0.34292443     0.37100
C1552       C  0.75659665  0.25917665  0.33341703     0.40300
N1553       N  0.66823480  0.14825439  0.30374181    -0.37700
N1554       N  0.67944314  0.21260065  0.29388344    -0.39300
N1555       N  0.70352145  0.16107782  0.41411618    -0.37100
N1556       N  0.70803561  0.22601898  0.40470907    -0.39500
N1557       N  0.75190325  0.20323520  0.35201484    -0.39200
N1558       N  0.77568705  0.26130866  0.33117042    -0.36900
N1559       N  0.66661299  0.30245656  0.32298989    -0.37900
N1560       N  0.64325519  0.24393868  0.34477062    -0.39600
C1561       C  0.32713290  0.70353485  0.80726518    -0.04500
C1562       C  0.34863079  0.69386195  0.80811606     0.09600
C1563       C  0.36077085  0.69068747  0.78824681    -0.01900
C1564       C  0.35196253  0.69835876  0.76781751    -0.00200
C1565       C  0.33081642  0.70893298  0.76714314    -0.03800
C1566       C  0.31818816  0.71081969  0.78690798     0.03300
C1567       C  0.35873805  0.68914463  0.83042305     0.10100
C1568       C  0.38226889  0.67957170  0.78891127     0.36000
C1569       C  0.29616032  0.72085711  0.78663888     0.39400
C1570       C  0.35424761  0.66898163  0.84149353    -0.04100
C1571       C  0.35757655  0.66724303  0.86472213     0.03000
C1572       C  0.36569490  0.68569243  0.87695732    -0.03700
C1573       C  0.37196279  0.70520426  0.86528880     0.00000
C1574       C  0.36882087  0.70673313  0.84216373    -0.02500
C1575       C  0.34491008  0.65051405  0.82908853     0.36700
C1576       C  0.38016586  0.72450760  0.87728514     0.40300
C1577       C  0.35034819  0.64728417  0.87601234     0.39500
C1578       C  0.37448175  0.72710936  0.83058503     0.36400
C1579       C  0.31443045  0.70656601  0.82762073     0.37100
C1580       C  0.36443097  0.69501486  0.74742673     0.40300
N1581       N  0.34417571  0.63110110  0.88435444    -0.37700
N1582       N  0.33753912  0.63578892  0.81910381    -0.39300
N1583       N  0.38661448  0.73992521  0.88685924    -0.37100
N1584       N  0.37897721  0.74332859  0.82129599    -0.39500
N1585       N  0.39935721  0.67052466  0.78945132    -0.39200
N1586       N  0.37429825  0.69226012  0.73110465    -0.36900
N1587       N  0.27848863  0.72867971  0.78704526    -0.37900
N1588       N  0.30442718  0.70899500  0.84391000    -0.39600
C1589       C  0.33778868  0.80795266  0.71463124    -0.04500
C1590       C  0.34371593  0.81002172  0.69200074     0.09600
C1591       C  0.34418012  0.79077459  0.67848058    -0.01900
C1592       C  0.33806645  0.76981035  0.68731782    -0.00200
C1593       C  0.33143553  0.76787912  0.70978134    -0.03800
C1594       C  0.33168976  0.78703973  0.72347363     0.03300
C1595       C  0.34793721  0.83281135  0.68238528     0.10100
C1596       C  0.35068027  0.79265384  0.65538611     0.36000
C1597       C  0.32451981  0.78550034  0.74643541     0.39400
C1598       C  0.36830354  0.84392788  0.68630350    -0.04100
C1599       C  0.37050743  0.86693323  0.68150955     0.03000
C1600       C  0.35250183  0.87896962  0.67205791    -0.03700
C1601       C  0.33269837  0.86717562  0.66656215     0.00000
C1602       C  0.33049338  0.84431836  0.67165895    -0.02500
C1603       C  0.38665897  0.83181563  0.69634182     0.36700
C1604       C  0.31382147  0.87887199  0.65694176     0.40300
C1605       C  0.39048550  0.87836119  0.68867097     0.39500
C1606       C  0.30969463  0.83286675  0.66701637     0.36400
C1607       C  0.33724285  0.82759836  0.72868048     0.37100
C1608       C  0.33881619  0.75012725  0.67335158     0.40300
N1609       N  0.40666974  0.88670818  0.69498911    -0.37700
N1610       N  0.40129079  0.82209681  0.70431619    -0.39300
N1611       N  0.29869374  0.88814353  0.64934866    -0.37100
N1612       N  0.29314070  0.82366713  0.66333092    -0.39500
N1613       N  0.35584867  0.79419349  0.63693940    -0.39200
N1614       N  0.33948270  0.73436212  0.66228299    -0.36900
N1615       N  0.31874323  0.78422789  0.76472895    -0.37900
N1616       N  0.33684298  0.84331208  0.73983046    -0.39600
C1617       C  0.24943039  0.69056616  0.68349332    -0.04500
C1618       C  0.22967084  0.69837103  0.69375526     0.09600
C1619       C  0.23115091  0.71215147  0.71271513    -0.01900
C1620       C  0.25212813  0.71938342  0.72040277    -0.00200
C1621       C  0.27193345  0.71160974  0.71022724    -0.03800
C1622       C  0.27055175  0.69690752  0.69193718     0.03300
C1623       C  0.20712994  0.69436457  0.68367472     0.10100
C1624       C  0.21091827  0.71920737  0.72409885     0.36000
C1625       C  0.29085538  0.68871560  0.68157014     0.39400
C1626       C  0.19469902  0.67525119  0.68912604    -0.04100
C1627       C  0.17145415  0.67446927  0.68478662     0.03000
C1628       C  0.16062117  0.69271696  0.67447544    -0.03700
C1629       C  0.17376225  0.71092851  0.66717320     0.00000
C1630       C  0.19685043  0.71163851  0.67165166    -0.02500
C1631       C  0.20566306  0.65692425  0.70035986     0.36700
C1632       C  0.16333745  0.72977401  0.65622539     0.40300
C1633       C  0.15875528  0.65581397  0.69311936     0.39500
C1634       C  0.20990885  0.73087794  0.66512616     0.36400
C1635       C  0.24794896  0.67640823  0.66405240     0.37100
C1636       C  0.25318228  0.73606438  0.73779746     0.40300
N1637       N  0.14953063  0.64055189  0.70032157    -0.37700
N1638       N  0.21443232  0.64223641  0.70920085    -0.39300
N1639       N  0.15506177  0.74487744  0.64760970    -0.37100
N1640       N  0.22040520  0.74619484  0.66004014    -0.39500
N1641       N  0.19474518  0.72464891  0.73320286    -0.39200
N1642       N  0.25369772  0.74982002  0.75126139    -0.36900
N1643       N  0.30708988  0.68217325  0.67333188    -0.37900
N1644       N  0.24669629  0.66510246  0.64852583    -0.39600
C1645       C  0.35519455  0.35432596  0.79283416    -0.04500
C1646       C  0.34798662  0.34338395  0.81227765     0.09600
C1647       C  0.33241835  0.32579912  0.81056666    -0.01900
C1648       C  0.32433298  0.31906445  0.78962614    -0.00200
C1649       C  0.33176716  0.32978913  0.77016186    -0.03800
C1650       C  0.34703560  0.34758580  0.77182642     0.03300
C1651       C  0.35673894  0.34987085  0.83475871     0.10100
C1652       C  0.32474875  0.31459298  0.83047032     0.36000
C1653       C  0.35440158  0.35883232  0.75187828     0.39400
C1654       C  0.34673109  0.36745089  0.84680197    -0.04100
C1655       C  0.35178312  0.37064062  0.86954469     0.03000
C1656       C  0.36606580  0.35556774  0.88073230    -0.03700
C1657       C  0.37608593  0.33801878  0.86843004     0.00000
C1658       C  0.37250128  0.33609236  0.84536233    -0.02500
C1659       C  0.32981650  0.38108697  0.83621030     0.36700
C1660       C  0.38783976  0.32025398  0.87975289     0.40300
C1661       C  0.33995176  0.38773308  0.88189100     0.39500
C1662       C  0.38398199  0.31896194  0.83267556     0.36400
C1663       C  0.37119995  0.37229912  0.79447815     0.37100
C1664       C  0.30811265  0.30121196  0.78810302     0.40300
N1665       N  0.32999187  0.40133941  0.89130138    -0.37700
N1666       N  0.31616775  0.39178428  0.82777505    -0.39300
N1667       N  0.39683292  0.30570961  0.88861482    -0.37100
N1668       N  0.39324470  0.30543670  0.82246424    -0.39500
N1669       N  0.31876399  0.30567846  0.84640224    -0.39200
N1670       N  0.29511806  0.28703239  0.78686281    -0.36900
N1671       N  0.36019732  0.36777657  0.73589632    -0.37900
N1672       N  0.38399269  0.38664768  0.79582117    -0.39600
C1673       C  0.24856161  0.34031676  0.68069055    -0.04500
C1674       C  0.23085888  0.34481258  0.69556073     0.09600
C1675       C  0.23507411  0.34474615  0.71862148    -0.01900
C1676       C  0.25650458  0.33931936  0.72678915    -0.00200
C1677       C  0.27383637  0.33284209  0.71197699    -0.03800
C1678       C  0.26983290  0.33403737  0.68880548     0.03300
C1679       C  0.20727796  0.34765411  0.68736800     0.10100
C1680       C  0.21697543  0.34928478  0.73409782     0.36000
C1681       C  0.28762693  0.32901031  0.67317729     0.39400
C1682       C  0.19527851  0.32892113  0.67985753    -0.04100
C1683       C  0.17197722  0.33027054  0.67663898     0.03000
C1684       C  0.16017065  0.35020462  0.68160347    -0.03700
C1685       C  0.17246083  0.36931608  0.68786785     0.00000
C1686       C  0.19599487  0.36817415  0.68995537    -0.02500
C1687       C  0.20670694  0.30779544  0.67672281     0.36700
C1688       C  0.16111348  0.38951227  0.69468798     0.40300
C1689       C  0.15998917  0.31059858  0.66929951     0.39500
C1690       C  0.20859143  0.38788348  0.69595370     0.36400
C1691       C  0.24470373  0.34181777  0.65698819     0.37100
C1692       C  0.26017191  0.33960916  0.75058941     0.40300
N1693       N  0.15045136  0.29490784  0.66347037    -0.37700
N1694       N  0.21584982  0.29097387  0.67419622    -0.39300
N1695       N  0.15287046  0.40590822  0.70067294    -0.37100
N1696       N  0.21865825  0.40360517  0.70070313    -0.39500
N1697       N  0.20251332  0.35291153  0.74638069    -0.39200
N1698       N  0.26303608  0.34011935  0.76957416    -0.36900
N1699       N  0.30178540  0.32494425  0.66068001    -0.37900
N1700       N  0.24156978  0.34301834  0.63808549    -0.39600
C1701       C  0.36163780  0.25149719  0.69397956    -0.04500
C1702       C  0.34898362  0.23188703  0.69663854     0.09600
C1703       C  0.32713489  0.23334343  0.70550109    -0.01900
C1704       C  0.31825288  0.25411497  0.71220624    -0.00200
C1705       C  0.33135369  0.27357619  0.71065578    -0.03800
C1706       C  0.35296272  0.27224480  0.70121076     0.03300
C1707       C  0.35897095  0.20936937  0.69178334     0.10100
C1708       C  0.31403998  0.21326610  0.70835685     0.36000
C1709       C  0.36618307  0.29228195  0.69880496     0.39400
C1710       C  0.36955974  0.19749049  0.70892181    -0.04100
C1711       C  0.37488963  0.17473468  0.70612512     0.03000
C1712       C  0.36968185  0.16343102  0.68602339    -0.03700
C1713       C  0.36067696  0.17597584  0.66824684     0.00000
C1714       C  0.35557723  0.19887997  0.67110818    -0.02500
C1715       C  0.37378147  0.20848011  0.72997822     0.36700
C1716       C  0.35443161  0.16521787  0.64768127     0.40300
C1717       C  0.38446727  0.16265236  0.72465576     0.39500
C1718       C  0.34570025  0.21148751  0.65312465     0.36400
C1719       C  0.38364032  0.25021740  0.68396852     0.37100
C1720       C  0.29588800  0.25533054  0.72149805     0.40300
N1721       N  0.39199508  0.15309376  0.73953093    -0.37700
N1722       N  0.37705622  0.21733457  0.74673523    -0.39300
N1723       N  0.34899502  0.15741953  0.63097949    -0.37100
N1724       N  0.33787816  0.22160094  0.63877689    -0.39500
N1725       N  0.30367493  0.19720750  0.71070943    -0.39200
N1726       N  0.27803374  0.25639280  0.72885608    -0.36900
N1727       N  0.37667811  0.30831639  0.69688563    -0.37900
N1728       N  0.40115186  0.24915946  0.67584149    -0.39600
C1729       C  0.71050639  0.34000911  0.81000295    -0.04500
C1730       C  0.68756101  0.34515903  0.81229238     0.09600
C1731       C  0.67364787  0.34451591  0.79341660    -0.01900
C1732       C  0.68244951  0.33798576  0.77256680    -0.00200
C1733       C  0.70520216  0.33182475  0.77048606    -0.03800
C1734       C  0.71925662  0.33320485  0.78928588     0.03300
C1735       C  0.67796387  0.34870259  0.83511725     0.10100
C1736       C  0.65015718  0.35005779  0.79562774     0.36000
C1737       C  0.74243726  0.32618692  0.78775134     0.39400
C1738       C  0.68162411  0.36879368  0.84671899    -0.04100
C1739       C  0.67770700  0.37005684  0.86988879     0.03000
C1740       C  0.66945959  0.35132559  0.88153229    -0.03700
C1741       C  0.66391630  0.33187988  0.86930189     0.00000
C1742       C  0.66818767  0.33060221  0.84630183    -0.02500
C1743       C  0.69083534  0.38771720  0.83496995     0.36700
C1744       C  0.65538862  0.31237131  0.88064602     0.40300
C1745       C  0.68466994  0.38982913  0.88174451     0.39500
C1746       C  0.66410069  0.30997929  0.83438905     0.36400
C1747       C  0.72496092  0.34080776  0.82929711     0.37100
C1748       C  0.66810163  0.33769723  0.75321064     0.40300
N1749       N  0.69073871  0.40589157  0.89044976    -0.37700
N1750       N  0.69821034  0.40280240  0.82559581    -0.39300
N1751       N  0.64872413  0.29673378  0.88964135    -0.37100
N1752       N  0.66093539  0.29356319  0.82481865    -0.39500
N1753       N  0.63138648  0.35440059  0.79743295    -0.39200
N1754       N  0.65670163  0.33751703  0.73772310    -0.36900
N1755       N  0.76088683  0.32046731  0.78655425    -0.37900
N1756       N  0.73642385  0.34153112  0.84472245    -0.39600
C1757       C  0.80301423  0.32309036  0.70259189    -0.04500
C1758       C  0.80562398  0.34593933  0.69771234     0.09600
C1759       C  0.78695201  0.36026852  0.69920521    -0.01900
C1760       C  0.76618228  0.35214198  0.70687719    -0.00200
C1761       C  0.76371261  0.32941038  0.71243673    -0.03800
C1762       C  0.78212774  0.31480888  0.70967753     0.03300
C1763       C  0.82857458  0.35506500  0.69331064     0.10100
C1764       C  0.78925022  0.38344090  0.69297166     0.36000
C1765       C  0.77999113  0.29139852  0.71515926     0.39400
C1766       C  0.83988689  0.35020250  0.67329437    -0.04100
C1767       C  0.86309725  0.35427631  0.67131267     0.03000
C1768       C  0.87496819  0.36427134  0.68901136    -0.03700
C1769       C  0.86300216  0.37093045  0.70828821     0.00000
C1770       C  0.84002984  0.36622631  0.71044925    -0.02500
C1771       C  0.82781642  0.33975795  0.65521700     0.36700
C1772       C  0.87467560  0.38106939  0.72682295     0.40300
C1773       C  0.87489142  0.34557670  0.65215726     0.39500
C1774       C  0.82850192  0.37145426  0.73104644     0.36400
C1775       C  0.82210139  0.30819365  0.70104966     0.37100
C1776       C  0.74729898  0.36719421  0.70889649     0.40300
N1777       N  0.88359007  0.33797386  0.63673153    -0.37700
N1778       N  0.81818108  0.33141420  0.64080516    -0.39300
N1779       N  0.88391222  0.38908393  0.74167643    -0.37100
N1780       N  0.81926438  0.37557319  0.74744989    -0.39500
N1781       N  0.79113954  0.40190903  0.68791457    -0.39200
N1782       N  0.73223207  0.37920316  0.71058430    -0.36900
N1783       N  0.77830358  0.27271461  0.71946815    -0.37900
N1784       N  0.83734205  0.29635503  0.69974375    -0.39600
C1785       C  0.69477297  0.24899257  0.68115037    -0.04500
C1786       C  0.69046616  0.23107459  0.69559289     0.09600
C1787       C  0.69156538  0.23452141  0.71875342    -0.01900
C1788       C  0.69809884  0.25539231  0.72740721    -0.00200
C1789       C  0.70376128  0.27305852  0.71290803    -0.03800
C1790       C  0.70157351  0.26982236  0.68970840     0.03300
C1791       C  0.68783796  0.20788558  0.68658077     0.10100
C1792       C  0.68697982  0.21618655  0.73370156     0.36000
C1793       C  0.70646667  0.28785818  0.67451955     0.39400
C1794       C  0.70696774  0.19605675  0.67960029    -0.04100
C1795       C  0.70543915  0.17334877  0.67397533     0.03000
C1796       C  0.68490748  0.16175702  0.67629773    -0.03700
C1797       C  0.66545843  0.17399808  0.68204262     0.00000
C1798       C  0.66691092  0.19710350  0.68667973    -0.02500
C1799       C  0.72858392  0.20699010  0.67946368     0.36700
C1800       C  0.64423533  0.16289853  0.68496053     0.40300
C1801       C  0.72544366  0.16167284  0.66663978     0.39500
C1802       C  0.64701122  0.20972691  0.69236234     0.36400
C1803       C  0.69273583  0.24571336  0.65739029     0.37100
C1804       C  0.70038081  0.25805890  0.75124215     0.40300
N1805       N  0.74139203  0.15237851  0.66083054    -0.37700
N1806       N  0.74578995  0.21573919  0.67948277    -0.39300
N1807       N  0.62693335  0.15475718  0.68757215    -0.37100
N1808       N  0.63114117  0.21986584  0.69680431    -0.39500
N1809       N  0.68329512  0.20155488  0.74559884    -0.39200
N1810       N  0.70220238  0.26016875  0.77025071    -0.36900
N1811       N  0.71048317  0.30220256  0.66238195    -0.37900
N1812       N  0.69108195  0.24300882  0.63844509    -0.39600
C1813       C  0.35401563  0.79181082  0.33946370    -0.04500
C1814       C  0.33999196  0.81076415  0.33930420     0.09600
C1815       C  0.31742774  0.80836369  0.33285704    -0.01900
C1816       C  0.30885530  0.78721568  0.32705547    -0.00200
C1817       C  0.32293970  0.76826672  0.32687821    -0.03800
C1818       C  0.34565713  0.77074773  0.33291807     0.03300
C1819       C  0.34936310  0.83365473  0.34367103     0.10100
C1820       C  0.30333739  0.82794206  0.33093457     0.36000
C1821       C  0.36056354  0.75168996  0.33212019     0.39400
C1822       C  0.36065334  0.84494663  0.32655464    -0.04100
C1823       C  0.36675642  0.86746841  0.32920817     0.03000
C1824       C  0.36139799  0.87930020  0.34899455    -0.03700
C1825       C  0.35139212  0.86750133  0.36671187     0.00000
C1826       C  0.34550326  0.84474950  0.36405256    -0.02500
C1827       C  0.36475016  0.83372630  0.30556574     0.36700
C1828       C  0.34553468  0.87896013  0.38707874     0.40300
C1829       C  0.37749665  0.87886390  0.31084250     0.39500
C1830       C  0.33451919  0.83292515  0.38192955     0.36400
C1831       C  0.37724574  0.79419360  0.34580412     0.37100
C1832       C  0.28581652  0.78524474  0.31988159     0.40300
N1833       N  0.38600038  0.88798511  0.29620672    -0.37700
N1834       N  0.36792070  0.82477952  0.28881505    -0.39300
N1835       N  0.34064278  0.88765517  0.40355152    -0.37100
N1836       N  0.32572120  0.82341332  0.39613746    -0.39500
N1837       N  0.29216840  0.84358784  0.32915149    -0.39200
N1838       N  0.26745992  0.78363497  0.31410810    -0.36900
N1839       N  0.37254509  0.73655060  0.33132227    -0.37900
N1840       N  0.39578405  0.79622021  0.35083192    -0.39600
C1841       C  0.33093984  0.71599931  0.22990057    -0.04500
C1842       C  0.33986515  0.69428056  0.22794475     0.09600
C1843       C  0.34023307  0.68030076  0.24673069    -0.01900
C1844       C  0.33176730  0.68800308  0.26734584    -0.00200
C1845       C  0.32321121  0.70988370  0.26937310    -0.03800
C1846       C  0.32266929  0.72376420  0.25047715     0.03300
C1847       C  0.34718347  0.68587551  0.20553786     0.10100
C1848       C  0.34910380  0.65791820  0.24470309     0.36000
C1849       C  0.31252867  0.74570141  0.25193736     0.39400
C1850       C  0.36937434  0.68880257  0.19809891    -0.04100
C1851       C  0.37503011  0.68501393  0.17551873     0.03000
C1852       C  0.35836596  0.67858772  0.16016642    -0.03700
C1853       C  0.33652669  0.67401033  0.16823096     0.00000
C1854       C  0.33110006  0.67740419  0.19077080    -0.02500
C1855       C  0.38603977  0.69703027  0.21347585     0.36700
C1856       C  0.31903084  0.66722069  0.15299568     0.40300
C1857       C  0.39755515  0.68952069  0.16802313     0.39500
C1858       C  0.30847924  0.67352665  0.19855954     0.36400
C1859       C  0.32978323  0.73019728  0.21049632     0.37100
C1860       C  0.33189592  0.67343997  0.28648164     0.40300
N1861       N  0.41574243  0.69322366  0.16266234    -0.37700
N1862       N  0.39927318  0.70365657  0.22579443    -0.39300
N1863       N  0.30507377  0.66190855  0.14083228    -0.37100
N1864       N  0.29044879  0.67048736  0.20481346    -0.39500
N1865       N  0.35622339  0.64006179  0.24302058    -0.39200
N1866       N  0.33187798  0.66180619  0.30175475    -0.36900
N1867       N  0.30429588  0.76311912  0.25316361    -0.37900
N1868       N  0.32879200  0.74144313  0.19496895    -0.39600
C1869       C  0.19264816  0.68797509  0.37149926    -0.04500
C1870       C  0.20192659  0.68200264  0.35070048     0.09600
C1871       C  0.18931896  0.66847766  0.33622640    -0.01900
C1872       C  0.16689958  0.66318414  0.34130948    -0.00200
C1873       C  0.15692478  0.67052295  0.36146962    -0.03800
C1874       C  0.17039343  0.68199081  0.37699455     0.03300
C1875       C  0.22399962  0.69154216  0.34307042     0.10100
C1876       C  0.19905141  0.66108756  0.31537591     0.36000
C1877       C  0.16099014  0.68951482  0.39786148     0.39400
C1878       C  0.24441331  0.68461122  0.35267273    -0.04100
C1879       C  0.26494474  0.69376585  0.34534291     0.03000
C1880       C  0.26535180  0.70917219  0.32769046    -0.03700
C1881       C  0.24504989  0.71572713  0.31775133     0.00000
C1882       C  0.22447820  0.70744397  0.32575453    -0.02500
C1883       C  0.24429867  0.66768440  0.36976033     0.36700
C1884       C  0.24538671  0.73080748  0.29898522     0.40300
C1885       C  0.28570667  0.68715273  0.35578852     0.39500
C1886       C  0.20372820  0.71536746  0.31614065     0.36400
C1887       C  0.20550145  0.70162740  0.38667806     0.37100
C1888       C  0.15355084  0.65166337  0.32480525     0.40300
N1889       N  0.30227699  0.68194248  0.36419320    -0.37700
N1890       N  0.24410968  0.65415453  0.38338877    -0.39300
N1891       N  0.24575903  0.74266113  0.28388542    -0.37100
N1892       N  0.18718186  0.72165280  0.30843780    -0.39500
N1893       N  0.20675830  0.65533077  0.29868184    -0.39200
N1894       N  0.14291341  0.64261446  0.31155619    -0.36900
N1895       N  0.15419283  0.69581751  0.41473581    -0.37900
N1896       N  0.21578315  0.71249479  0.39879332    -0.39600
C1897       C  0.79024189  0.68188650  0.69357542    -0.04500
C1898       C  0.80788496  0.69698466  0.69004415     0.09600
C1899       C  0.80413215  0.71998066  0.69314986    -0.01900
C1900       C  0.78312829  0.72782195  0.70046472    -0.00200
C1901       C  0.76573185  0.71263022  0.70536307    -0.03800
C1902       C  0.76922280  0.68965764  0.70116946     0.03300
C1903       C  0.83110527  0.68893134  0.68502637     0.10100
C1904       C  0.82235792  0.73554733  0.68984029     0.36000
C1905       C  0.75104415  0.67403697  0.70416393     0.39400
C1906       C  0.84027181  0.69137059  0.66357605    -0.04100
C1907       C  0.86359791  0.68931872  0.66017828     0.03000
C1908       C  0.87778418  0.68396318  0.67815196    -0.03700
C1909       C  0.86814042  0.67965109  0.69924335     0.00000
C1910       C  0.84497836  0.68219926  0.70263338    -0.02500
C1911       C  0.82573520  0.69725796  0.64527709     0.36700
C1912       C  0.88223895  0.67389064  0.71797566     0.40300
C1913       C  0.87290365  0.69515647  0.63878461     0.39500
C1914       C  0.83558658  0.67937437  0.72467294     0.36400
C1915       C  0.79397111  0.65831207  0.68986377     0.37100
C1916       C  0.77995973  0.75155789  0.70367833     0.40300
N1917       N  0.87971590  0.70021703  0.62154633    -0.37700
N1918       N  0.81409187  0.70190741  0.63069153    -0.39300
N1919       N  0.89349975  0.66938119  0.73290123    -0.37100
N1920       N  0.82808121  0.67717512  0.74224265    -0.39500
N1921       N  0.83695477  0.74788125  0.68728699    -0.39200
N1922       N  0.77769030  0.77056754  0.70590130    -0.36900
N1923       N  0.73650696  0.66157008  0.70639590    -0.37900
N1924       N  0.79705478  0.63950456  0.68693501    -0.39600
C1925       C  0.70942707  0.81012655  0.71298776    -0.04500
C1926       C  0.69071490  0.81155743  0.69875589     0.09600
C1927       C  0.67997481  0.79180853  0.69184216    -0.01900
C1928       C  0.68804005  0.77081240  0.69890662    -0.00200
C1929       C  0.70676482  0.76947771  0.71305519    -0.03800
C1930       C  0.71719164  0.78921929  0.72034331     0.03300
C1931       C  0.68232806  0.83406100  0.69158865     0.10100
C1932       C  0.66063191  0.79316625  0.67748612     0.36000
C1933       C  0.73576358  0.78799810  0.73574327     0.39400
C1934       C  0.68795655  0.84263865  0.67052124    -0.04100
C1935       C  0.68385709  0.86530781  0.66543999     0.03000
C1936       C  0.67422101  0.87966455  0.68150412    -0.03700
C1937       C  0.66729270  0.87050774  0.70211279     0.00000
C1938       C  0.67097945  0.84781055  0.70690910    -0.02500
C1939       C  0.69940684  0.82844677  0.65462368     0.36700
C1940       C  0.65794701  0.88481443  0.71926076     0.40300
C1941       C  0.69181346  0.87410550  0.64454197     0.39500
C1942       C  0.66427997  0.83882496  0.72823620     0.36400
C1943       C  0.72087117  0.83024049  0.71989687     0.37100
C1944       C  0.67706941  0.75057374  0.69170419     0.40300
N1945       N  0.69853624  0.88049171  0.62772086    -0.37700
N1946       N  0.70855761  0.81707828  0.64198706    -0.39300
N1947       N  0.65063525  0.89619552  0.73301972    -0.37100
N1948       N  0.65901177  0.83163623  0.74525248    -0.39500
N1949       N  0.64522479  0.79433428  0.66597294    -0.39200
N1950       N  0.66829937  0.73439849  0.68600585    -0.36900
N1951       N  0.75047444  0.78695737  0.74813653    -0.37900
N1952       N  0.73000448  0.84628983  0.72537909    -0.39600
C1953       C  0.68338107  0.69500423  0.79295288    -0.04500
C1954       C  0.69857119  0.69462269  0.81081332     0.09600
C1955       C  0.72107824  0.70062941  0.80708325    -0.01900
C1956       C  0.72816675  0.70761496  0.78581917    -0.00200
C1957       C  0.71261563  0.70932915  0.76822583    -0.03800
C1958       C  0.69023610  0.70272564  0.77186671     0.03300
C1959       C  0.69045568  0.69033033  0.83404909     0.10100
C1960       C  0.73674722  0.70047911  0.82542165     0.36000
C1961       C  0.67420510  0.70391721  0.75390421     0.39400
C1962       C  0.69358018  0.66944072  0.84424054    -0.04100
C1963       C  0.68907775  0.66668501  0.86718794     0.03000
C1964       C  0.68084290  0.68475822  0.88000011    -0.03700
C1965       C  0.67595279  0.70512141  0.86909830     0.00000
C1966       C  0.68095559  0.70791991  0.84640003    -0.02500
C1967       C  0.70228356  0.65102822  0.83119947     0.36700
C1968       C  0.66679164  0.72379449  0.88152126     0.40300
C1969       C  0.69477123  0.64576364  0.87759812     0.39500
C1970       C  0.67747374  0.72939229  0.83596046     0.36400
C1971       C  0.66060086  0.68765087  0.79645299     0.37100
C1972       C  0.75125235  0.71414007  0.78241702     0.40300
N1973       N  0.69969233  0.62874865  0.88510889    -0.37700
N1974       N  0.70917094  0.63633331  0.82075041    -0.39300
N1975       N  0.65953004  0.73870356  0.89140819    -0.37100
N1976       N  0.67481333  0.74650816  0.82759618    -0.39500
N1977       N  0.74920170  0.70043206  0.84008716    -0.39200
N1978       N  0.76967421  0.71929192  0.77966945    -0.36900
N1979       N  0.66140871  0.70498040  0.73957424    -0.37900
N1980       N  0.64247940  0.68161387  0.79931948    -0.39600
loop_ 
_geom_bond_atom_site_label_1 
_geom_bond_atom_site_label_2 
_geom_bond_distance 
_geom_bond_site_symmetry_2 
_ccdc_geom_bond_type 
C1            N2   1.362       .  A
C1            N6   1.361       .  A
C1         C1957   1.493       .  S
N2            C3   1.360       .  A
C3            N4   1.359       .  A
C3         C1929   1.485       .  S
N4            C5   1.360       .  A
C5            N6   1.361       .  A
C5         C1901   1.495       .  S
C7            N8   1.360       .  A
C7           N12   1.364       .  A
C7         C1817   1.496       .  S
N8            C9   1.360       .  A
C9           N10   1.360       .  A
C9         C1845   1.491       .  S
N10          C11   1.361       .  A
C11          N12   1.363       .  A
C11        C1880   1.491       .  S
C13          N14   1.360       .  A
C13          N18   1.361       .  A
C13        C1733   1.492       .  S
N14          C15   1.361       .  A
C15          N16   1.360       .  A
C15        C1789   1.496       .  S
N16          C17   1.359       .  A
C17          N18   1.360       .  A
C17        C1761   1.492       .  S
C19          N20   1.360       .  A
C19          N24   1.360       .  A
C19        C1705   1.489       .  S
N20          C21   1.362       .  A
C21          N22   1.362       .  A
C21        C1677   1.501       .  S
N22          C23   1.359       .  A
C23          N24   1.359       .  A
C23        C1649   1.486       .  S
C25          N26   1.363       .  A
C25          N30   1.360       .  A
C25        C1565   1.492       .  S
N26          C27   1.364       .  A
C27          N28   1.360       .  A
C27        C1593   1.496       .  S
N28          C29   1.359       .  A
C29          N30   1.359       .  A
C29        C1621   1.485       .  S
C31          N32   1.356       .  A
C31          N36   1.356       .  A
C31        C1481   1.476       .  S
N32          C33   1.358       .  A
C33          N34   1.361       .  A
C33        C1537   1.493       .  S
N34          C35   1.361       .  A
C35          N36   1.358       .  A
C35        C1516   1.485       .  S
O37         Cu45   2.004       .  S
O37          C47   1.276       .  A
O38         Cu45   2.003       .  S
O38          C48   1.276       .  A
O39         Cu45   2.019       .  S
O39          C49   1.280       .  A
O40         Cu45   2.024       .  S
O40          C50   1.280       .  A
O41         Cu46   2.001       .  S
O41          C50   1.276       .  A
O42         Cu46   2.001       .  S
O42          C49   1.276       .  A
O43         Cu46   2.024       .  S
O43          C48   1.280       .  A
O44         Cu46   2.025       .  S
O44          C47   1.280       .  A
Cu45        Cu46   2.356       .  S
C47        C1425   1.515       .  S
C48        C1397   1.511       .  S
C49        C1453   1.500       .  S
C50        C1369   1.501       .  S
N51          C55   1.366       .  A
N51          C52   1.367       .  A
N51        C1376   1.451       .  S
C52        C1320   1.497       .  S
C52          C53   1.381       .  A
C53          C54   1.368       .  A
C53          H56   1.082       .  S
C54          C55   1.382       .  A
C54          H57   1.082       .  S
C55        C1341   1.499       .  S
N58          C62   1.370       .  A
N58          C59   1.370       .  A
N58        C1432   1.452       .  S
C59        C1852   1.501       .  S
C59          C60   1.382       .  A
C60          C61   1.365       .  A
C60          H63   1.082       .  S
C61          C62   1.382       .  A
C61          H64   1.082       .  S
C62        C1285   1.504       .  S
N65          C69   1.366       .  A
N65          C66   1.366       .  A
N65        C1404   1.450       .  S
C66        C1509   1.498       .  S
C66          C67   1.382       .  A
C67          C68   1.368       .  A
C67          H70   1.082       .  S
C68          C69   1.383       .  A
C68          H71   1.081       .  S
C69        C1257   1.501       .  S
N72          C76   1.366       .  A
N72          C73   1.369       .  A
N72        C1460   1.450       .  S
C73        C1208   1.503       .  S
C73          C74   1.383       .  A
C74          C75   1.368       .  A
C74          H77   1.082       .  S
C75          C76   1.382       .  A
C75          H78   1.082       .  S
C76        C1229   1.502       .  S
O79         Cu87   2.021       .  S
O79          C89   1.279       .  A
O80         Cu87   2.027       .  S
O80          C90   1.280       .  A
O81         Cu87   2.018       .  S
O81          C91   1.278       .  A
O82         Cu87   2.016       .  S
O82          C92   1.279       .  A
O83         Cu88   2.010       .  S
O83          C92   1.278       .  A
O84         Cu88   2.008       .  S
O84          C91   1.278       .  A
O85         Cu88   2.004       .  S
O85          C90   1.277       .  A
O86         Cu88   1.998       .  S
O86          C89   1.276       .  A
Cu87        Cu88   2.358       .  S
C89        C1096   1.510       .  S
C90        C1173   1.510       .  S
C91        C1117   1.499       .  S
C92        C1145   1.498       .  S
N93          C97   1.366       .  A
N93          C94   1.367       .  A
N93        C1089   1.450       .  S
C94        C1656   1.496       .  S
C94          C95   1.380       .  A
C95          C96   1.370       .  A
C95          H98   1.082       .  S
C96          C97   1.383       .  A
C96          H99   1.082       .  S
C97        C1348   1.500       .  S
N100        C104   1.368       .  A
N100        C101   1.366       .  A
N100       C1152   1.448       .  S
C101       C1572   1.501       .  S
C101        C102   1.382       .  A
C102        C103   1.370       .  A
C102        H105   1.082       .  S
C103        C104   1.383       .  A
C103        H106   1.082       .  S
C104       C1292   1.505       .  S
N107        C111   1.368       .  A
N107        C108   1.368       .  A
N107       C1124   1.451       .  S
C108       C1740   1.501       .  S
C108        C109   1.381       .  A
C109        C110   1.366       .  A
C109        H112   1.082       .  S
C110        C111   1.382       .  A
C110        H113   1.082       .  S
C111       C1264   1.500       .  S
N114        C118   1.367       .  A
N114        C115   1.369       .  A
N114       C1180   1.450       .  S
C115       C1964   1.502       .  S
C115        C116   1.383       .  A
C116        C117   1.367       .  A
C116        H119   1.082       .  S
C117        C118   1.381       .  A
C117        H120   1.082       .  S
C118       C1236   1.499       .  S
O121       Cu129   2.021       .  S
O121        C131   1.279       .  A
O122       Cu129   2.028       .  S
O122        C132   1.280       .  A
O123       Cu129   2.022       .  S
O123        C133   1.279       .  A
O124       Cu129   2.020       .  S
O124        C134   1.279       .  A
O125       Cu130   2.003       .  S
O125        C134   1.277       .  A
O126       Cu130   2.003       .  S
O126        C133   1.277       .  A
O127       Cu130   2.004       .  S
O127        C132   1.277       .  A
O128       Cu130   2.012       .  S
O128        C131   1.279       .  A
Cu129      Cu130   2.366       .  S
C131       C1005   1.496       .  S
C132       C1033   1.497       .  S
C133        C984   1.506       .  S
C134       C1061   1.487       .  S
N135        C139   1.368       .  A
N135        C136   1.367       .  A
N135        C977   1.450       .  S
C136        C928   1.501       .  S
C136        C137   1.382       .  A
C137        C138   1.368       .  A
C137        H140   1.082       .  S
C138        C139   1.382       .  A
C138        H141   1.082       .  S
C139        C949   1.502       .  S
N142        C146   1.368       .  A
N142        C143   1.368       .  A
N142       C1040   1.453       .  S
C143       C1544   1.499       .  S
C143        C144   1.382       .  A
C144        C145   1.366       .  A
C144        H147   1.082       .  S
C145        C146   1.382       .  A
C145        H148   1.081       .  S
C146        C893   1.499       .  S
N149        C153   1.372       .  A
N149        C150   1.372       .  A
N149       C1012   1.454       .  S
C150       C1712   1.506       .  S
C150        C151   1.381       .  A
C151        C152   1.365       .  A
C151        H154   1.082       .  S
C152        C153   1.383       .  A
C152        H155   1.082       .  S
C153        C865   1.508       .  S
N156        C160   1.367       .  A
N156        C157   1.369       .  A
N156       C1068   1.452       .  S
C157       C1796   1.501       .  S
C157        C158   1.384       .  A
C158        C159   1.365       .  A
C158        H161   1.082       .  S
C159        C160   1.380       .  A
C159        H162   1.082       .  S
C160        C844   1.497       .  S
O163       Cu171   2.005       .  S
O163        C173   1.277       .  A
O164       Cu171   2.009       .  S
O164        C174   1.278       .  A
O165       Cu171   2.023       .  S
O165        C175   1.280       .  A
O166       Cu171   2.020       .  S
O166        C176   1.279       .  A
O167       Cu172   2.020       .  S
O167        C176   1.279       .  A
O168       Cu172   2.018       .  S
O168        C175   1.279       .  A
O169       Cu172   2.016       .  S
O169        C174   1.279       .  A
O170       Cu172   2.019       .  S
O170        C173   1.280       .  A
Cu171      Cu172   2.366       .  S
C173        C781   1.498       .  S
C174        C753   1.496       .  S
C175        C816   1.504       .  S
C176        C725   1.494       .  S
N177        C181   1.373       .  A
N177        C178   1.373       .  A
N177        C732   1.455       .  S
C178       C1824   1.505       .  S
C178        C179   1.382       .  A
C179        C180   1.363       .  A
C179        H182   1.082       .  S
C180        C181   1.382       .  A
C180        H183   1.082       .  S
C181        C956   1.508       .  S
N184        C188   1.366       .  A
N184        C185   1.367       .  A
N184        C788   1.451       .  S
C185        C697   1.500       .  S
C185        C186   1.381       .  A
C186        C187   1.371       .  A
C186        H189   1.082       .  S
C187        C188   1.383       .  A
C187        H190   1.082       .  S
C188        C900   1.500       .  S
N191        C195   1.369       .  A
N191        C192   1.371       .  A
N191        C760   1.451       .  S
C192       C1600   1.507       .  S
C192        C193   1.382       .  A
C193        C194   1.369       .  A
C193        H196   1.082       .  S
C194        C195   1.382       .  A
C194        H197   1.082       .  S
C195        C872   1.506       .  S
N198        C202   1.369       .  A
N198        C199   1.371       .  A
N198        C809   1.454       .  S
C199       C1936   1.500       .  S
C199        C200   1.381       .  A
C200        C201   1.365       .  A
C200        H203   1.082       .  S
C201        C202   1.382       .  A
C201        H204   1.082       .  S
C202        C837   1.502       .  S
C205        N206   1.363       .  A
C205        N210   1.362       .  A
C205       C1201   1.499       .  S
N206        C207   1.362       .  A
C207        N208   1.360       .  A
C207        C704   1.488       .  S
N208        C209   1.359       .  A
C209        N210   1.359       .  A
C209        C669   1.488       .  S
O211       Cu219   2.020       .  S
O211        C221   1.279       .  A
O212       Cu219   2.008       .  S
O212        C222   1.278       .  A
O213       Cu219   2.002       .  S
O213        C223   1.277       .  A
O214       Cu219   2.014       .  S
O214        C224   1.278       .  A
O215       Cu220   1.999       .  S
O215        C224   1.277       .  A
O216       Cu220   2.011       .  S
O216        C223   1.278       .  A
O217       Cu220   2.018       .  S
O217        C222   1.279       .  A
O218       Cu220   2.013       .  S
O218        C221   1.279       .  A
Cu219      Cu220   2.361       .  S
C221        C613   1.506       .  S
C222        C592   1.507       .  S
C223        C641   1.497       .  S
C224        C564   1.491       .  S
N225        C229   1.364       .  A
N225        C226   1.366       .  A
N225        C557   1.449       .  S
C226        C508   1.497       .  S
C226        C227   1.383       .  A
C227        C228   1.368       .  A
C227        H230   1.081       .  S
C228        C229   1.381       .  A
C228        H231   1.082       .  S
C229        C529   1.496       .  S
N232        C236   1.369       .  A
N232        C233   1.372       .  A
N232        C620   1.454       .  S
C233       C1873   1.502       .  S
C233        C234   1.382       .  A
C234        C235   1.364       .  A
C234        H237   1.083       .  S
C235        C236   1.381       .  A
C235        H238   1.082       .  S
C236        C473   1.502       .  S
N239        C243   1.365       .  A
N239        C240   1.366       .  A
N239        C585   1.449       .  S
C240       C1684   1.500       .  S
C240        C241   1.383       .  A
C241        C242   1.369       .  A
C241        H244   1.082       .  S
C242        C243   1.381       .  A
C242        H245   1.082       .  S
C243        C445   1.498       .  S
N246        C250   1.363       .  A
N246        C247   1.364       .  A
N246        C648   1.446       .  S
C247       C1628   1.500       .  S
C247        C248   1.384       .  A
C248        C249   1.371       .  A
C248        H251   1.082       .  S
C249        C250   1.382       .  A
C249        H252   1.081       .  S
C250        C417   1.497       .  S
O253       Cu261   2.007       .  S
O253        C263   1.278       .  A
O254       Cu261   2.017       .  S
O254        C264   1.279       .  A
O255       Cu261   2.011       .  S
O255        C265   1.278       .  A
O256       Cu261   2.008       .  S
O256        C266   1.277       .  A
O257       Cu262   2.015       .  S
O257        C266   1.279       .  A
O258       Cu262   2.000       .  S
O258        C265   1.277       .  A
O259       Cu262   2.015       .  S
O259        C264   1.279       .  A
O260       Cu262   2.026       .  S
O260        C263   1.280       .  A
Cu261      Cu262   2.361       .  S
C263        C333   1.507       .  S
C264        C361   1.504       .  S
C265        C305   1.500       .  S
C266        C389   1.495       .  S
N267        C271   1.361       .  A
N267        C268   1.362       .  A
N267        C312   1.447       .  S
C268       C1488   1.491       .  S
C268        C269   1.382       .  A
C269        C270   1.370       .  A
C269        H272   1.082       .  S
C270        C271   1.382       .  A
C270        H273   1.082       .  S
C271        C536   1.491       .  S
N274        C278   1.367       .  A
N274        C275   1.369       .  A
N274        C368   1.453       .  S
C275        C676   1.497       .  S
C275        C276   1.381       .  A
C276        C277   1.367       .  A
C276        H279   1.083       .  S
C277        C278   1.381       .  A
C277        H280   1.082       .  S
C278        C480   1.497       .  S
N281        C285   1.366       .  A
N281        C282   1.368       .  A
N281        C340   1.451       .  S
C282       C1768   1.496       .  S
C282        C283   1.381       .  A
C283        C284   1.365       .  A
C283        H286   1.087       .  S
C284        C285   1.382       .  A
C284        H287   1.085       .  S
C285        C452   1.496       .  S
N288        C292   1.365       .  A
N288        C289   1.366       .  A
N288        C396   1.451       .  S
C289       C1908   1.496       .  S
C289        C290   1.382       .  A
C290        C291   1.366       .  A
C290        H293   1.082       .  S
C291        C292   1.382       .  A
C291        H294   1.082       .  S
C292        C424   1.496       .  S
C295        N296   1.362       .  A
C295        N300   1.360       .  A
C295        C921   1.501       .  S
N296        C297   1.363       .  A
C297        N298   1.360       .  A
C297        C501   1.495       .  S
N298        C299   1.358       .  A
C299        N300   1.357       .  A
C299       C1313   1.482       .  S
C301        C302   1.405       .  A
C301        C306   1.410       .  A
C301        C319   1.452       .  S
C302        C307   1.491       .  S
C302        C303   1.407       .  A
C303        C304   1.410       .  A
C303        C308   1.453       .  S
C304        C305   1.424       .  A
C304        C320   1.452       .  S
C305        C306   1.423       .  A
C306        C309   1.450       .  S
C307        C310   1.407       .  A
C307        C314   1.407       .  A
C308        N325   1.157       .  T
C309        N327   1.157       .  T
C310        C311   1.410       .  A
C310        C315   1.451       .  S
C311        C312   1.416       .  A
C311        C317   1.447       .  S
C312        C313   1.414       .  A
C313        C314   1.407       .  A
C313        C316   1.447       .  S
C314        C318   1.452       .  S
C315        N322   1.157       .  T
C316        N323   1.157       .  T
C317        N321   1.157       .  T
C318        N324   1.157       .  T
C319        N328   1.157       .  T
C320        N326   1.158       .  T
C329        C330   1.406       .  A
C329        C334   1.412       .  A
C329        C347   1.451       .  S
C330        C335   1.498       .  S
C330        C331   1.409       .  A
C331        C332   1.414       .  A
C331        C336   1.452       .  S
C332        C333   1.423       .  A
C332        C348   1.450       .  S
C333        C334   1.425       .  A
C334        C337   1.452       .  S
C335        C338   1.409       .  A
C335        C342   1.408       .  A
C336        N353   1.157       .  T
C337        N355   1.158       .  T
C338        C339   1.412       .  A
C338        C343   1.451       .  S
C339        C340   1.416       .  A
C339        C345   1.447       .  S
C340        C341   1.416       .  A
C341        C342   1.412       .  A
C341        C344   1.447       .  S
C342        C346   1.451       .  S
C343        N350   1.157       .  T
C344        N351   1.157       .  T
C345        N349   1.157       .  T
C346        N352   1.157       .  T
C347        N356   1.157       .  T
C348        N354   1.157       .  T
C357        C358   1.409       .  A
C357        C362   1.412       .  A
C357        C375   1.452       .  S
C358        C363   1.499       .  S
C358        C359   1.407       .  A
C359        C360   1.414       .  A
C359        C364   1.451       .  S
C360        C361   1.423       .  A
C360        C376   1.450       .  S
C361        C362   1.422       .  A
C362        C365   1.451       .  S
C363        C366   1.408       .  A
C363        C370   1.408       .  A
C364        N381   1.157       .  T
C365        N383   1.157       .  T
C366        C367   1.413       .  A
C366        C371   1.451       .  S
C367        C368   1.417       .  A
C367        C373   1.446       .  S
C368        C369   1.416       .  A
C369        C370   1.412       .  A
C369        C372   1.445       .  S
C370        C374   1.451       .  S
C371        N378   1.157       .  T
C372        N379   1.156       .  T
C373        N377   1.157       .  T
C374        N380   1.157       .  T
C375        N384   1.157       .  T
C376        N382   1.157       .  T
C385        C386   1.409       .  A
C385        C390   1.413       .  A
C385        C403   1.451       .  S
C386        C391   1.497       .  S
C386        C387   1.409       .  A
C387        C388   1.410       .  A
C387        C392   1.452       .  S
C388        C389   1.418       .  A
C388        C404   1.449       .  S
C389        C390   1.420       .  A
C390        C393   1.451       .  S
C391        C394   1.409       .  A
C391        C398   1.409       .  A
C392        N409   1.157       .  T
C393        N411   1.158       .  T
C394        C395   1.411       .  A
C394        C399   1.451       .  S
C395        C396   1.415       .  A
C395        C401   1.447       .  S
C396        C397   1.416       .  A
C397        C398   1.410       .  A
C397        C400   1.447       .  S
C398        C402   1.451       .  S
C399        N406   1.157       .  T
C400        N407   1.157       .  T
C401        N405   1.157       .  T
C402        N408   1.157       .  T
C403        N412   1.157       .  T
C404        N410   1.157       .  T
C413        C414   1.410       .  A
C413        C418   1.407       .  A
C413        C431   1.453       .  S
C414        C419   1.497       .  S
C414        C415   1.409       .  A
C415        C416   1.415       .  A
C415        C420   1.451       .  S
C416        C417   1.418       .  A
C416        C432   1.447       .  S
C417        C418   1.417       .  A
C418        C421   1.453       .  S
C419        C422   1.409   1_455  A
C419        C426   1.409   1_455  A
C420        N437   1.157       .  T
C421        N439   1.157       .  T
C422        C423   1.407       .  A
C422        C427   1.452   1_655  S
C423        C424   1.419       .  A
C423        C429   1.453       .  S
C424        C425   1.417       .  A
C425        C426   1.415       .  A
C425        C428   1.447       .  S
C426        C430   1.450   1_655  S
C427        N434   1.157       .  T
C428        N435   1.157       .  T
C429        N433   1.157       .  T
C430        N436   1.157       .  T
C431        N440   1.157       .  T
C432        N438   1.157       .  T
C441        C442   1.411       .  A
C441        C446   1.408       .  A
C441        C459   1.452       .  S
C442        C447   1.502       .  S
C442        C443   1.411       .  A
C443        C444   1.416       .  A
C443        C448   1.450       .  S
C444        C445   1.416       .  A
C444        C460   1.447       .  S
C445        C446   1.418       .  A
C446        C449   1.453       .  S
C447        C450   1.412   1_455  A
C447        C454   1.410   1_455  A
C448        N465   1.157       .  T
C449        N467   1.157       .  T
C450        C451   1.416       .  A
C450        C455   1.450   1_655  S
C451        C452   1.415       .  A
C451        C457   1.447       .  S
C452        C453   1.418       .  A
C453        C454   1.407       .  A
C453        C456   1.453       .  S
C454        C458   1.452   1_655  S
C455        N462   1.157       .  T
C456        N463   1.157       .  T
C457        N461   1.157       .  T
C458        N464   1.157       .  T
C459        N468   1.157       .  T
C460        N466   1.157       .  T
C469        C470   1.409       .  A
C469        C474   1.409       .  A
C469        C487   1.452       .  S
C470        C475   1.504       .  S
C470        C471   1.411       .  A
C471        C472   1.418       .  A
C471        C476   1.450       .  S
C472        C473   1.416       .  A
C472        C488   1.447       .  S
C473        C474   1.420       .  A
C474        C477   1.453       .  S
C475        C478   1.411   1_455  A
C475        C482   1.412   1_455  A
C476        N493   1.157       .  T
C477        N495   1.157       .  T
C478        C479   1.409       .  A
C478        C483   1.453   1_655  S
C479        C480   1.418       .  A
C479        C485   1.453       .  S
C480        C481   1.415       .  A
C481        C482   1.418       .  A
C481        C484   1.448       .  S
C482        C486   1.450       .  S
C483        N490   1.157       .  T
C484        N491   1.157       .  T
C485        N489   1.157       .  T
C486        N492   1.157   1_655  T
C487        N496   1.157       .  T
C488        N494   1.157       .  T
C497        C498   1.411       .  A
C497        C502   1.415       .  A
C497        C515   1.450       .  S
C498        C503   1.504       .  S
C498        C499   1.413       .  A
C499        C500   1.412       .  A
C499        C504   1.452       .  S
C500        C501   1.416       .  A
C500        C516   1.451       .  S
C501        C502   1.418       .  A
C502        C505   1.450       .  S
C503        C506   1.410       .  A
C503        C510   1.411       .  A
C504        N521   1.157       .  T
C505        N523   1.157       .  T
C506        C507   1.410       .  A
C506        C511   1.451       .  S
C507        C508   1.420       .  A
C507        C513   1.452       .  S
C508        C509   1.415       .  A
C509        C510   1.415       .  A
C509        C512   1.447       .  S
C510        C514   1.450       .  S
C511        N518   1.157       .  T
C512        N519   1.157       .  T
C513        N517   1.157       .  T
C514        N520   1.157       .  T
C515        N524   1.157       .  T
C516        N522   1.157       .  T
C525        C526   1.410       .  A
C525        C530   1.414       .  A
C525        C543   1.451       .  S
C526        C531   1.498       .  S
C526        C527   1.410       .  A
C527        C528   1.408       .  A
C527        C532   1.452       .  S
C528        C529   1.418       .  A
C528        C544   1.453       .  S
C529        C530   1.416       .  A
C530        C533   1.447       .  S
C531        C534   1.412       .  A
C531        C538   1.411   1_455  A
C532        N549   1.157       .  T
C533        N551   1.157       .  T
C534        C535   1.406   1_455  A
C534        C539   1.453       .  S
C535        C536   1.416       .  A
C535        C541   1.453       .  S
C536        C537   1.415       .  A
C537        C538   1.415       .  A
C537        C540   1.448       .  S
C538        C542   1.450   1_655  S
C539        N546   1.157       .  T
C540        N547   1.157       .  T
C541        N545   1.157       .  T
C542        N548   1.157       .  T
C543        N552   1.157       .  T
C544        N550   1.157       .  T
C553        C554   1.408       .  A
C553        C558   1.409       .  A
C553        C571   1.451       .  S
C554        C559   1.495       .  S
C554        C555   1.409       .  A
C555        C556   1.410       .  A
C555        C560   1.451       .  S
C556        C557   1.415       .  A
C556        C572   1.447       .  S
C557        C558   1.416       .  A
C558        C561   1.447       .  S
C559        C562   1.409       .  A
C559        C566   1.411       .  A
C560        N577   1.157       .  T
C561        N579   1.157       .  T
C562        C563   1.410       .  A
C562        C567   1.451       .  S
C563        C564   1.418       .  A
C563        C569   1.452       .  S
C564        C565   1.416       .  A
C565        C566   1.410       .  A
C565        C568   1.449       .  S
C566        C570   1.452       .  S
C567        N574   1.157       .  T
C568        N575   1.157       .  T
C569        N573   1.158       .  T
C570        N576   1.157       .  T
C571        N580   1.157       .  T
C572        N578   1.157       .  T
C581        C582   1.409       .  A
C581        C586   1.412       .  A
C581        C599   1.450       .  S
C582        C587   1.496       .  S
C582        C583   1.408       .  A
C583        C584   1.409       .  A
C583        C588   1.451       .  S
C584        C585   1.415       .  A
C584        C600   1.448       .  S
C585        C586   1.415       .  A
C586        C589   1.447       .  S
C587        C590   1.406       .  A
C587        C594   1.407       .  A
C588        N605   1.157       .  T
C589        N607   1.157       .  T
C590        C591   1.412       .  A
C590        C595   1.453       .  S
C591        C592   1.426       .  A
C591        C597   1.451       .  S
C592        C593   1.425       .  A
C593        C594   1.413       .  A
C593        C596   1.451       .  S
C594        C598   1.452       .  S
C595        N602   1.157       .  T
C596        N603   1.157       .  T
C597        N601   1.158       .  T
C598        N604   1.157       .  T
C599        N608   1.157       .  T
C600        N606   1.157       .  T
C609        C610   1.409       .  A
C609        C614   1.413       .  A
C609        C627   1.452       .  S
C610        C615   1.501       .  S
C610        C611   1.408       .  A
C611        C612   1.414       .  A
C611        C616   1.451       .  S
C612        C613   1.424       .  A
C612        C628   1.451       .  S
C613        C614   1.422       .  A
C614        C617   1.450       .  S
C615        C618   1.409       .  A
C615        C622   1.409       .  A
C616        N633   1.157       .  T
C617        N635   1.157       .  T
C618        C619   1.413       .  A
C618        C623   1.450       .  S
C619        C620   1.417       .  A
C619        C625   1.447       .  S
C620        C621   1.416       .  A
C621        C622   1.413       .  A
C621        C624   1.446       .  S
C622        C626   1.451       .  S
C623        N630   1.157       .  T
C624        N631   1.157       .  T
C625        N629   1.157       .  T
C626        N632   1.157       .  T
C627        N636   1.157       .  T
C628        N634   1.158       .  T
C637        C638   1.407       .  A
C637        C642   1.410       .  A
C637        C655   1.452       .  S
C638        C643   1.492       .  S
C638        C639   1.407       .  A
C639        C640   1.411       .  A
C639        C644   1.451       .  S
C640        C641   1.421       .  A
C640        C656   1.451       .  S
C641        C642   1.423       .  A
C642        C645   1.452       .  S
C643        C646   1.407       .  A
C643        C650   1.409       .  A
C644        N661   1.157       .  T
C645        N663   1.158       .  T
C646        C647   1.408       .  A
C646        C651   1.451       .  S
C647        C648   1.415       .  A
C647        C653   1.448       .  S
C648        C649   1.413       .  A
C649        C650   1.409       .  A
C649        C652   1.448       .  S
C650        C654   1.451       .  S
C651        N658   1.157       .  T
C652        N659   1.157       .  T
C653        N657   1.157       .  T
C654        N660   1.157       .  T
C655        N664   1.157       .  T
C656        N662   1.157       .  T
C665        C666   1.412       .  A
C665        C670   1.415       .  A
C665        C683   1.449       .  S
C666        C671   1.504       .  S
C666        C667   1.413       .  A
C667        C668   1.413       .  A
C667        C672   1.451       .  S
C668        C669   1.413       .  A
C668        C684   1.451       .  S
C669        C670   1.412       .  A
C670        C673   1.449       .  S
C671        C674   1.411       .  A
C671        C678   1.409       .  A
C672        N689   1.157       .  T
C673        N691   1.157       .  T
C674        C675   1.418       .  A
C674        C679   1.450       .  S
C675        C676   1.416       .  A
C675        C681   1.448       .  S
C676        C677   1.419       .  A
C677        C678   1.411       .  A
C677        C680   1.452       .  S
C678        C682   1.451       .  S
C679        N686   1.157       .  T
C680        N687   1.157       .  T
C681        N685   1.157       .  T
C682        N688   1.157       .  T
C683        N692   1.157       .  T
C684        N690   1.157       .  T
C693        C694   1.410       .  A
C693        C698   1.416       .  A
C693        C711   1.450       .  S
C694        C699   1.505       .  S
C694        C695   1.409       .  A
C695        C696   1.413       .  A
C695        C700   1.451       .  S
C696        C697   1.419       .  A
C696        C712   1.450       .  S
C697        C698   1.417       .  A
C698        C701   1.448       .  S
C699        C702   1.414       .  A
C699        C706   1.413       .  A
C700        N717   1.157       .  T
C701        N719   1.157       .  T
C702        C703   1.410       .  A
C702        C707   1.451       .  S
C703        C704   1.411       .  A
C703        C709   1.451       .  S
C704        C705   1.414       .  A
C705        C706   1.418       .  A
C705        C708   1.449       .  S
C706        C710   1.449       .  S
C707        N714   1.157       .  T
C708        N715   1.157       .  T
C709        N713   1.157       .  T
C710        N716   1.157       .  T
C711        N720   1.157       .  T
C712        N718   1.157       .  T
C721        C722   1.413       .  A
C721        C726   1.413       .  A
C721        C739   1.451       .  S
C722        C727   1.505       .  S
C722        C723   1.412       .  A
C723        C724   1.415       .  A
C723        C728   1.450       .  S
C724        C725   1.417       .  A
C724        C740   1.451       .  S
C725        C726   1.415       .  A
C726        C729   1.451       .  S
C727        C730   1.410       .  A
C727        C734   1.411       .  A
C728        N745   1.157       .  T
C729        N747   1.157       .  T
C730        C731   1.414       .  A
C730        C735   1.451       .  S
C731        C732   1.416       .  A
C731        C737   1.447       .  S
C732        C733   1.416       .  A
C733        C734   1.415       .  A
C733        C736   1.448       .  S
C734        C738   1.450       .  S
C735        N742   1.157       .  T
C736        N743   1.157       .  T
C737        N741   1.157       .  T
C738        N744   1.157       .  T
C739        N748   1.157       .  T
C740        N746   1.157       .  T
C749        C750   1.410       .  A
C749        C754   1.411       .  A
C749        C767   1.452       .  S
C750        C755   1.499       .  S
C750        C751   1.410       .  A
C751        C752   1.414       .  A
C751        C756   1.451       .  S
C752        C753   1.419       .  A
C752        C768   1.451       .  S
C753        C754   1.419       .  A
C754        C757   1.452       .  S
C755        C758   1.409       .  A
C755        C762   1.409       .  A
C756        N773   1.157       .  T
C757        N775   1.157       .  T
C758        C759   1.412       .  A
C758        C763   1.451       .  S
C759        C760   1.415       .  A
C759        C765   1.447       .  S
C760        C761   1.415       .  A
C761        C762   1.412       .  A
C761        C764   1.447       .  S
C762        C766   1.451       .  S
C763        N770   1.157       .  T
C764        N771   1.157       .  T
C765        N769   1.157       .  T
C766        N772   1.157       .  T
C767        N776   1.157       .  T
C768        N774   1.157       .  T
C777        C778   1.408       .  A
C777        C782   1.411       .  A
C777        C795   1.452       .  S
C778        C783   1.496       .  S
C778        C779   1.408       .  A
C779        C780   1.412       .  A
C779        C784   1.451       .  S
C780        C781   1.419       .  A
C780        C796   1.451       .  S
C781        C782   1.422       .  A
C782        C785   1.451       .  S
C783        C786   1.407       .  A
C783        C790   1.408       .  A
C784        N801   1.157       .  T
C785        N803   1.158       .  T
C786        C787   1.409       .  A
C786        C791   1.452       .  S
C787        C788   1.415       .  A
C787        C793   1.447       .  S
C788        C789   1.417       .  A
C789        C790   1.413       .  A
C789        C792   1.446       .  S
C790        C794   1.450       .  S
C791        N798   1.157       .  T
C792        N799   1.157       .  T
C793        N797   1.157       .  T
C794        N800   1.157       .  T
C795        N804   1.157       .  T
C796        N802   1.157       .  T
C805        C806   1.410       .  A
C805        C810   1.414       .  A
C805        C823   1.451       .  S
C806        C811   1.505       .  S
C806        C807   1.411       .  A
C807        C808   1.414       .  A
C807        C812   1.450       .  S
C808        C809   1.416       .  A
C808        C824   1.448       .  S
C809        C810   1.416       .  A
C810        C813   1.447       .  S
C811        C814   1.412       .  A
C811        C818   1.410       .  A
C812        N829   1.157       .  T
C813        N831   1.157       .  T
C814        C815   1.415       .  A
C814        C819   1.451       .  S
C815        C816   1.420       .  A
C815        C821   1.451       .  S
C816        C817   1.421       .  A
C817        C818   1.414       .  A
C817        C820   1.451       .  S
C818        C822   1.451       .  S
C819        N826   1.157       .  T
C820        N827   1.157       .  T
C821        N825   1.157       .  T
C822        N828   1.157       .  T
C823        N832   1.157       .  T
C824        N830   1.157       .  T
C833        C834   1.410   1_565  A
C833        C838   1.410       .  A
C833        C851   1.452   1_565  S
C834        C839   1.504       .  S
C834        C835   1.411   1_545  A
C835        C836   1.415       .  A
C835        C840   1.450   1_565  S
C836        C837   1.416       .  A
C836        C852   1.446       .  S
C837        C838   1.421       .  A
C838        C841   1.453       .  S
C839        C842   1.413       .  A
C839        C846   1.412       .  A
C840        N857   1.157       .  T
C841        N859   1.157       .  T
C842        C843   1.418       .  A
C842        C847   1.450       .  S
C843        C844   1.416       .  A
C843        C849   1.448       .  S
C844        C845   1.417       .  A
C845        C846   1.407       .  A
C845        C848   1.453       .  S
C846        C850   1.453       .  S
C847        N854   1.157       .  T
C848        N855   1.157       .  T
C849        N853   1.157       .  T
C850        N856   1.157       .  T
C851        N860   1.157       .  T
C852        N858   1.157       .  T
C861        C862   1.410       .  A
C861        C866   1.411       .  A
C861        C879   1.452       .  S
C862        C867   1.511       .  S
C862        C863   1.415       .  A
C863        C864   1.422       .  A
C863        C868   1.449       .  S
C864        C865   1.416       .  A
C864        C880   1.447       .  S
C865        C866   1.422       .  A
C866        C869   1.453       .  S
C867        C870   1.415   1_545  A
C867        C874   1.411   1_545  A
C868        N885   1.157       .  T
C869        N887   1.157       .  T
C870        C871   1.422       .  A
C870        C875   1.449   1_565  S
C871        C872   1.417       .  A
C871        C877   1.448       .  S
C872        C873   1.419       .  A
C873        C874   1.411       .  A
C873        C876   1.452       .  S
C874        C878   1.452   1_565  S
C875        N882   1.157       .  T
C876        N883   1.157       .  T
C877        N881   1.157       .  T
C878        N884   1.157       .  T
C879        N888   1.157       .  T
C880        N886   1.157       .  T
C889        C890   1.409       .  A
C889        C894   1.409       .  A
C889        C907   1.452       .  S
C890        C895   1.503       .  S
C890        C891   1.412       .  A
C891        C892   1.418       .  A
C891        C896   1.450       .  S
C892        C893   1.416       .  A
C892        C908   1.448       .  S
C893        C894   1.420       .  A
C894        C897   1.453       .  S
C895        C898   1.412   1_545  A
C895        C902   1.410   1_545  A
C896        N913   1.157       .  T
C897        N915   1.157       .  T
C898        C899   1.418       .  A
C898        C903   1.449   1_565  S
C899        C900   1.415       .  A
C899        C905   1.447       .  S
C900        C901   1.419       .  A
C901        C902   1.409       .  A
C901        C904   1.453       .  S
C902        C906   1.452   1_565  S
C903        N910   1.157       .  T
C904        N911   1.157       .  T
C905        N909   1.157       .  T
C906        N912   1.157       .  T
C907        N916   1.157       .  T
C908        N914   1.157       .  T
C917        C918   1.411       .  A
C917        C922   1.416       .  A
C917        C935   1.450       .  S
C918        C923   1.505       .  S
C918        C919   1.412       .  A
C919        C920   1.412       .  A
C919        C924   1.452       .  S
C920        C921   1.420       .  A
C920        C936   1.451       .  S
C921        C922   1.419       .  A
C922        C925   1.450       .  S
C923        C926   1.410       .  A
C923        C930   1.412       .  A
C924        N941   1.157       .  T
C925        N943   1.157       .  T
C926        C927   1.411       .  A
C926        C931   1.452       .  S
C927        C928   1.420       .  A
C927        C933   1.452       .  S
C928        C929   1.416       .  A
C929        C930   1.417       .  A
C929        C932   1.447       .  S
C930        C934   1.450       .  S
C931        N938   1.157       .  T
C932        N939   1.157       .  T
C933        N937   1.157       .  T
C934        N940   1.157       .  T
C935        N944   1.157       .  T
C936        N942   1.157       .  T
C945        C946   1.412       .  A
C945        C950   1.417       .  A
C945        C963   1.451       .  S
C946        C951   1.509       .  S
C946        C947   1.411       .  A
C947        C948   1.414       .  A
C947        C952   1.451       .  S
C948        C949   1.420       .  A
C948        C964   1.452       .  S
C949        C950   1.416       .  A
C950        C953   1.447       .  S
C951        C954   1.411       .  A
C951        C958   1.412   1_545  A
C952        N969   1.157       .  T
C953        N971   1.157       .  T
C954        C955   1.409   1_545  A
C954        C959   1.453       .  S
C955        C956   1.421       .  A
C955        C961   1.453       .  S
C956        C957   1.418       .  A
C957        C958   1.420       .  A
C957        C960   1.446       .  S
C958        C962   1.449   1_565  S
C959        N966   1.157       .  T
C960        N967   1.157       .  T
C961        N965   1.157       .  T
C962        N968   1.157       .  T
C963        N972   1.157       .  T
C964        N970   1.157       .  T
C973        C974   1.408       .  A
C973        C978   1.411       .  A
C973        C991   1.451       .  S
C974        C979   1.497       .  S
C974        C975   1.408       .  A
C975        C976   1.411       .  A
C975        C980   1.451       .  S
C976        C977   1.415       .  A
C976        C992   1.447       .  S
C977        C978   1.415       .  A
C978        C981   1.446       .  S
C979        C982   1.407       .  A
C979        C986   1.408       .  A
C980        N997   1.157       .  T
C981        N999   1.157       .  T
C982        C983   1.410       .  A
C982        C987   1.453       .  S
C983        C984   1.424       .  A
C983        C989   1.452       .  S
C984        C985   1.425       .  A
C985        C986   1.415       .  A
C985        C988   1.451       .  S
C986        C990   1.451       .  S
C987        N994   1.157       .  T
C988        N995   1.158       .  T
C989        N993   1.157       .  T
C990        N996   1.157       .  T
C991       N1000   1.157       .  T
C992        N998   1.157       .  T
C1001      C1002   1.411       .  A
C1001      C1006   1.415       .  A
C1001      C1019   1.450       .  S
C1002      C1007   1.502       .  S
C1002      C1003   1.411       .  A
C1003      C1004   1.411       .  A
C1003      C1008   1.451       .  S
C1004      C1005   1.418       .  A
C1004      C1020   1.451       .  S
C1005      C1006   1.418       .  A
C1006      C1009   1.451       .  S
C1007      C1010   1.410       .  A
C1007      C1014   1.409       .  A
C1008      N1025   1.157       .  T
C1009      N1027   1.157       .  T
C1010      C1011   1.414       .  A
C1010      C1015   1.450       .  S
C1011      C1012   1.416       .  A
C1011      C1017   1.447       .  S
C1012      C1013   1.417       .  A
C1013      C1014   1.412       .  A
C1013      C1016   1.448       .  S
C1014      C1018   1.451       .  S
C1015      N1022   1.157       .  T
C1016      N1023   1.157       .  T
C1017      N1021   1.157       .  T
C1018      N1024   1.157       .  T
C1019      N1028   1.157       .  T
C1020      N1026   1.157       .  T
C1029      C1030   1.411       .  A
C1029      C1034   1.412       .  A
C1029      C1047   1.452       .  S
C1030      C1035   1.503       .  S
C1030      C1031   1.411       .  A
C1031      C1032   1.415       .  A
C1031      C1036   1.451       .  S
C1032      C1033   1.418       .  A
C1032      C1048   1.451       .  S
C1033      C1034   1.418       .  A
C1034      C1037   1.451       .  S
C1035      C1038   1.410       .  A
C1035      C1042   1.411       .  A
C1036      N1053   1.157       .  T
C1037      N1055   1.157       .  T
C1038      C1039   1.412       .  A
C1038      C1043   1.451       .  S
C1039      C1040   1.415       .  A
C1039      C1045   1.447       .  S
C1040      C1041   1.416       .  A
C1041      C1042   1.413       .  A
C1041      C1044   1.447       .  S
C1042      C1046   1.451       .  S
C1043      N1050   1.157       .  T
C1044      N1051   1.157       .  T
C1045      N1049   1.157       .  T
C1046      N1052   1.157       .  T
C1047      N1056   1.157       .  T
C1048      N1054   1.157       .  T
C1057      C1058   1.413       .  A
C1057      C1062   1.413       .  A
C1057      C1075   1.451       .  S
C1058      C1063   1.500       .  S
C1058      C1059   1.412       .  A
C1059      C1060   1.411       .  A
C1059      C1064   1.451       .  S
C1060      C1061   1.415       .  A
C1060      C1076   1.452       .  S
C1061      C1062   1.414       .  A
C1062      C1065   1.451       .  S
C1063      C1066   1.409       .  A
C1063      C1070   1.411       .  A
C1064      N1081   1.157       .  T
C1065      N1083   1.157       .  T
C1066      C1067   1.410       .  A
C1066      C1071   1.451       .  S
C1067      C1068   1.416       .  A
C1067      C1073   1.447       .  S
C1068      C1069   1.415       .  A
C1069      C1070   1.413       .  A
C1069      C1072   1.447       .  S
C1070      C1074   1.451       .  S
C1071      N1078   1.157       .  T
C1072      N1079   1.157       .  T
C1073      N1077   1.157       .  T
C1074      N1080   1.157       .  T
C1075      N1084   1.157       .  T
C1076      N1082   1.157       .  T
C1085      C1086   1.406       .  A
C1085      C1090   1.410       .  A
C1085      C1103   1.452       .  S
C1086      C1091   1.496       .  S
C1086      C1087   1.409       .  A
C1087      C1088   1.412       .  A
C1087      C1092   1.451       .  S
C1088      C1089   1.415       .  A
C1088      C1104   1.446       .  S
C1089      C1090   1.416       .  A
C1090      C1093   1.445       .  S
C1091      C1094   1.406       .  A
C1091      C1098   1.406       .  A
C1092      N1109   1.157       .  T
C1093      N1111   1.156       .  T
C1094      C1095   1.414       .  A
C1094      C1099   1.452       .  S
C1095      C1096   1.426       .  A
C1095      C1101   1.451       .  S
C1096      C1097   1.428       .  A
C1097      C1098   1.410       .  A
C1097      C1100   1.452       .  S
C1098      C1102   1.454       .  S
C1099      N1106   1.157       .  T
C1100      N1107   1.158       .  T
C1101      N1105   1.157       .  T
C1102      N1108   1.157       .  T
C1103      N1112   1.157       .  T
C1104      N1110   1.157       .  T
C1113      C1114   1.408       .  A
C1113      C1118   1.410       .  A
C1113      C1131   1.452       .  S
C1114      C1119   1.497       .  S
C1114      C1115   1.409       .  A
C1115      C1116   1.413       .  A
C1115      C1120   1.451       .  S
C1116      C1117   1.420       .  A
C1116      C1132   1.450       .  S
C1117      C1118   1.421       .  A
C1118      C1121   1.450       .  S
C1119      C1122   1.408       .  A
C1119      C1126   1.409       .  A
C1120      N1137   1.157       .  T
C1121      N1139   1.157       .  T
C1122      C1123   1.411       .  A
C1122      C1127   1.451       .  S
C1123      C1124   1.416       .  A
C1123      C1129   1.447       .  S
C1124      C1125   1.416       .  A
C1125      C1126   1.412       .  A
C1125      C1128   1.447       .  S
C1126      C1130   1.451       .  S
C1127      N1134   1.157       .  T
C1128      N1135   1.157       .  T
C1129      N1133   1.157       .  T
C1130      N1136   1.157       .  T
C1131      N1140   1.157       .  T
C1132      N1138   1.157       .  T
C1141      C1142   1.408       .  A
C1141      C1146   1.412       .  A
C1141      C1159   1.451       .  S
C1142      C1147   1.496       .  S
C1142      C1143   1.409       .  A
C1143      C1144   1.411       .  A
C1143      C1148   1.452       .  S
C1144      C1145   1.420       .  A
C1144      C1160   1.450       .  S
C1145      C1146   1.421       .  A
C1146      C1149   1.450       .  S
C1147      C1150   1.409       .  A
C1147      C1154   1.408       .  A
C1148      N1165   1.157       .  T
C1149      N1167   1.157       .  T
C1150      C1151   1.411       .  A
C1150      C1155   1.450       .  S
C1151      C1152   1.414       .  A
C1151      C1157   1.448       .  S
C1152      C1153   1.414       .  A
C1153      C1154   1.410       .  A
C1153      C1156   1.447       .  S
C1154      C1158   1.451       .  S
C1155      N1162   1.157       .  T
C1156      N1163   1.157       .  T
C1157      N1161   1.157       .  T
C1158      N1164   1.157       .  T
C1159      N1168   1.157       .  T
C1160      N1166   1.157       .  T
C1169      C1170   1.407       .  A
C1169      C1174   1.415       .  A
C1169      C1187   1.451       .  S
C1170      C1175   1.499       .  S
C1170      C1171   1.407       .  A
C1171      C1172   1.412       .  A
C1171      C1176   1.453       .  S
C1172      C1173   1.427       .  A
C1172      C1188   1.451       .  S
C1173      C1174   1.425       .  A
C1174      C1177   1.450       .  S
C1175      C1178   1.409       .  A
C1175      C1182   1.409       .  A
C1176      N1193   1.157       .  T
C1177      N1195   1.157       .  T
C1178      C1179   1.412       .  A
C1178      C1183   1.451       .  S
C1179      C1180   1.415       .  A
C1179      C1185   1.447       .  S
C1180      C1181   1.415       .  A
C1181      C1182   1.411       .  A
C1181      C1184   1.447       .  S
C1182      C1186   1.451       .  S
C1183      N1190   1.157       .  T
C1184      N1191   1.157       .  T
C1185      N1189   1.157       .  T
C1186      N1192   1.157       .  T
C1187      N1196   1.157       .  T
C1188      N1194   1.157       .  T
C1197      C1198   1.412       .  A
C1197      C1202   1.415       .  A
C1197      C1215   1.450       .  S
C1198      C1203   1.508       .  S
C1198      C1199   1.414       .  A
C1199      C1200   1.415       .  A
C1199      C1204   1.451       .  S
C1200      C1201   1.417       .  A
C1200      C1216   1.450       .  S
C1201      C1202   1.417       .  A
C1202      C1205   1.450       .  S
C1203      C1206   1.413       .  A
C1203      C1210   1.411       .  A
C1204      N1221   1.157       .  T
C1205      N1223   1.157       .  T
C1206      C1207   1.418       .  A
C1206      C1211   1.450       .  S
C1207      C1208   1.416       .  A
C1207      C1213   1.447       .  S
C1208      C1209   1.420       .  A
C1209      C1210   1.411       .  A
C1209      C1212   1.453       .  S
C1210      C1214   1.452       .  S
C1211      N1218   1.157       .  T
C1212      N1219   1.157       .  T
C1213      N1217   1.157       .  T
C1214      N1220   1.157       .  T
C1215      N1224   1.157       .  T
C1216      N1222   1.157       .  T
C1225      C1226   1.410       .  A
C1225      C1230   1.408       .  A
C1225      C1243   1.452       .  S
C1226      C1231   1.503       .  S
C1226      C1227   1.412       .  A
C1227      C1228   1.418       .  A
C1227      C1232   1.450       .  S
C1228      C1229   1.417       .  A
C1228      C1244   1.447       .  S
C1229      C1230   1.419       .  A
C1230      C1233   1.453       .  S
C1231      C1234   1.410   1_554  A
C1231      C1238   1.412   1_554  A
C1232      N1249   1.157       .  T
C1233      N1251   1.157       .  T
C1234      C1235   1.408       .  A
C1234      C1239   1.452   1_556  S
C1235      C1236   1.419       .  A
C1235      C1241   1.453       .  S
C1236      C1237   1.416       .  A
C1237      C1238   1.417       .  A
C1237      C1240   1.447       .  S
C1238      C1242   1.450   1_556  S
C1239      N1246   1.157       .  T
C1240      N1247   1.157       .  T
C1241      N1245   1.157       .  T
C1242      N1248   1.157       .  T
C1243      N1252   1.157       .  T
C1244      N1250   1.157       .  T
C1253      C1254   1.410       .  A
C1253      C1258   1.409       .  A
C1253      C1271   1.452       .  S
C1254      C1259   1.502       .  S
C1254      C1255   1.411       .  A
C1255      C1256   1.416       .  A
C1255      C1260   1.450       .  S
C1256      C1257   1.416       .  A
C1256      C1272   1.447       .  S
C1257      C1258   1.420       .  A
C1258      C1261   1.453       .  S
C1259      C1262   1.412   1_554  A
C1259      C1266   1.409       .  A
C1260      N1277   1.157       .  T
C1261      N1279   1.157       .  T
C1262      C1263   1.419       .  A
C1262      C1267   1.450   1_556  S
C1263      C1264   1.416       .  A
C1263      C1269   1.447       .  S
C1264      C1265   1.420       .  A
C1265      C1266   1.407   1_556  A
C1265      C1268   1.453       .  S
C1266      C1270   1.453       .  S
C1267      N1274   1.157       .  T
C1268      N1275   1.157       .  T
C1269      N1273   1.157       .  T
C1270      N1276   1.157       .  T
C1271      N1280   1.157       .  T
C1272      N1278   1.157       .  T
C1281      C1282   1.413       .  A
C1281      C1286   1.418       .  A
C1281      C1299   1.450       .  S
C1282      C1287   1.510       .  S
C1282      C1283   1.412       .  A
C1283      C1284   1.412       .  A
C1283      C1288   1.452       .  S
C1284      C1285   1.420       .  A
C1284      C1300   1.453       .  S
C1285      C1286   1.417       .  A
C1286      C1289   1.446       .  S
C1287      C1290   1.413   1_554  A
C1287      C1294   1.412   1_554  A
C1288      N1305   1.157       .  T
C1289      N1307   1.157       .  T
C1290      C1291   1.411       .  A
C1290      C1295   1.452   1_556  S
C1291      C1292   1.419       .  A
C1291      C1297   1.452       .  S
C1292      C1293   1.418       .  A
C1293      C1294   1.418       .  A
C1293      C1296   1.446       .  S
C1294      C1298   1.450       .  S
C1295      N1302   1.157       .  T
C1296      N1303   1.157       .  T
C1297      N1301   1.157       .  T
C1298      N1304   1.157   1_556  T
C1299      N1308   1.157       .  T
C1300      N1306   1.157       .  T
C1309      C1310   1.411       .  A
C1309      C1314   1.415       .  A
C1309      C1327   1.448       .  S
C1310      C1315   1.501       .  S
C1310      C1311   1.414       .  A
C1311      C1312   1.409       .  A
C1311      C1316   1.452       .  S
C1312      C1313   1.411       .  A
C1312      C1328   1.451       .  S
C1313      C1314   1.412       .  A
C1314      C1317   1.449       .  S
C1315      C1318   1.410       .  A
C1315      C1322   1.407       .  A
C1316      N1333   1.157       .  T
C1317      N1335   1.157       .  T
C1318      C1319   1.416       .  A
C1318      C1323   1.450       .  S
C1319      C1320   1.416       .  A
C1319      C1325   1.447       .  S
C1320      C1321   1.420       .  A
C1321      C1322   1.410       .  A
C1321      C1324   1.451       .  S
C1322      C1326   1.451       .  S
C1323      N1330   1.157       .  T
C1324      N1331   1.157       .  T
C1325      N1329   1.157       .  T
C1326      N1332   1.157       .  T
C1327      N1336   1.157       .  T
C1328      N1334   1.157       .  T
C1337      C1338   1.412       .  A
C1337      C1342   1.418       .  A
C1337      C1355   1.449       .  S
C1338      C1343   1.504       .  S
C1338      C1339   1.411       .  A
C1339      C1340   1.409       .  A
C1339      C1344   1.452       .  S
C1340      C1341   1.418       .  A
C1340      C1356   1.453       .  S
C1341      C1342   1.416       .  A
C1342      C1345   1.448       .  S
C1343      C1346   1.412   1_554  A
C1343      C1350   1.410   1_554  A
C1344      N1361   1.157       .  T
C1345      N1363   1.157       .  T
C1346      C1347   1.418       .  A
C1346      C1351   1.450   1_556  S
C1347      C1348   1.416       .  A
C1347      C1353   1.447       .  S
C1348      C1349   1.420       .  A
C1349      C1350   1.410       .  A
C1349      C1352   1.453       .  S
C1350      C1354   1.452   1_556  S
C1351      N1358   1.157       .  T
C1352      N1359   1.157       .  T
C1353      N1357   1.157       .  T
C1354      N1360   1.157       .  T
C1355      N1364   1.157       .  T
C1356      N1362   1.157       .  T
C1365      C1366   1.408       .  A
C1365      C1370   1.414       .  A
C1365      C1383   1.451       .  S
C1366      C1371   1.496       .  S
C1366      C1367   1.408       .  A
C1367      C1368   1.410       .  A
C1367      C1372   1.453       .  S
C1368      C1369   1.422       .  A
C1368      C1384   1.452       .  S
C1369      C1370   1.421       .  A
C1370      C1373   1.450       .  S
C1371      C1374   1.407       .  A
C1371      C1378   1.408       .  A
C1372      N1389   1.157       .  T
C1373      N1391   1.157       .  T
C1374      C1375   1.409       .  A
C1374      C1379   1.452       .  S
C1375      C1376   1.415       .  A
C1375      C1381   1.446       .  S
C1376      C1377   1.417       .  A
C1377      C1378   1.413       .  A
C1377      C1380   1.447       .  S
C1378      C1382   1.450       .  S
C1379      N1386   1.157       .  T
C1380      N1387   1.157       .  T
C1381      N1385   1.156       .  T
C1382      N1388   1.157       .  T
C1383      N1392   1.157       .  T
C1384      N1390   1.157       .  T
C1393      C1394   1.407       .  A
C1393      C1398   1.413       .  A
C1393      C1411   1.452       .  S
C1394      C1399   1.497       .  S
C1394      C1395   1.405       .  A
C1395      C1396   1.412       .  A
C1395      C1400   1.452       .  S
C1396      C1397   1.428       .  A
C1396      C1412   1.451       .  S
C1397      C1398   1.426       .  A
C1398      C1401   1.451       .  S
C1399      C1402   1.408       .  A
C1399      C1406   1.409       .  A
C1400      N1417   1.157       .  T
C1401      N1419   1.157       .  T
C1402      C1403   1.412       .  A
C1402      C1407   1.451       .  S
C1403      C1404   1.416       .  A
C1403      C1409   1.448       .  S
C1404      C1405   1.414       .  A
C1405      C1406   1.410       .  A
C1405      C1408   1.447       .  S
C1406      C1410   1.451       .  S
C1407      N1414   1.157       .  T
C1408      N1415   1.157       .  T
C1409      N1413   1.157       .  T
C1410      N1416   1.157       .  T
C1411      N1420   1.157       .  T
C1412      N1418   1.157       .  T
C1421      C1422   1.406       .  A
C1421      C1426   1.414       .  A
C1421      C1439   1.452       .  S
C1422      C1427   1.500       .  S
C1422      C1423   1.408       .  A
C1423      C1424   1.414       .  A
C1423      C1428   1.453       .  S
C1424      C1425   1.426       .  A
C1424      C1440   1.451       .  S
C1425      C1426   1.430       .  A
C1426      C1429   1.452       .  S
C1427      C1430   1.409       .  A
C1427      C1434   1.409       .  A
C1428      N1445   1.157       .  T
C1429      N1447   1.158       .  T
C1430      C1431   1.411       .  A
C1430      C1435   1.451       .  S
C1431      C1432   1.415       .  A
C1431      C1437   1.447       .  S
C1432      C1433   1.416       .  A
C1433      C1434   1.414       .  A
C1433      C1436   1.446       .  S
C1434      C1438   1.451       .  S
C1435      N1442   1.157       .  T
C1436      N1443   1.157       .  T
C1437      N1441   1.157       .  T
C1438      N1444   1.157       .  T
C1439      N1448   1.157       .  T
C1440      N1446   1.158       .  T
C1449      C1450   1.407       .  A
C1449      C1454   1.412       .  A
C1449      C1467   1.451       .  S
C1450      C1455   1.495       .  S
C1450      C1451   1.408       .  A
C1451      C1452   1.411       .  A
C1451      C1456   1.452       .  S
C1452      C1453   1.423       .  A
C1452      C1468   1.451       .  S
C1453      C1454   1.421       .  A
C1454      C1457   1.451       .  S
C1455      C1458   1.409       .  A
C1455      C1462   1.408       .  A
C1456      N1473   1.157       .  T
C1457      N1475   1.157       .  T
C1458      C1459   1.410       .  A
C1458      C1463   1.451       .  S
C1459      C1460   1.415       .  A
C1459      C1465   1.447       .  S
C1460      C1461   1.416       .  A
C1461      C1462   1.411       .  A
C1461      C1464   1.448       .  S
C1462      C1466   1.450       .  S
C1463      N1470   1.157       .  T
C1464      N1471   1.157       .  T
C1465      N1469   1.157       .  T
C1466      N1472   1.157       .  T
C1467      N1476   1.157       .  T
C1468      N1474   1.157       .  T
C1477      C1478   1.412       .  A
C1477      C1482   1.406       .  A
C1477      C1495   1.452       .  S
C1478      C1483   1.492       .  S
C1478      C1479   1.410       .  A
C1479      C1480   1.412       .  A
C1479      C1484   1.449       .  S
C1480      C1481   1.411       .  A
C1480      C1496   1.450       .  S
C1481      C1482   1.411       .  A
C1482      C1485   1.452       .  S
C1483      C1486   1.408       .  A
C1483      C1490   1.407       .  A
C1484      N1501   1.157       .  T
C1485      N1503   1.157       .  T
C1486      C1487   1.412       .  A
C1486      C1491   1.451       .  S
C1487      C1488   1.416       .  A
C1487      C1493   1.447       .  S
C1488      C1489   1.418       .  A
C1489      C1490   1.408       .  A
C1489      C1492   1.452       .  S
C1490      C1494   1.451       .  S
C1491      N1498   1.157       .  T
C1492      N1499   1.157       .  T
C1493      N1497   1.157       .  T
C1494      N1500   1.157       .  T
C1495      N1504   1.157       .  T
C1496      N1502   1.157       .  T
C1505      C1506   1.408       .  A
C1505      C1510   1.414       .  A
C1505      C1523   1.451       .  S
C1506      C1511   1.498       .  S
C1506      C1507   1.407       .  A
C1507      C1508   1.411       .  A
C1507      C1512   1.451       .  S
C1508      C1509   1.420       .  A
C1508      C1524   1.452       .  S
C1509      C1510   1.417       .  A
C1510      C1513   1.446       .  S
C1511      C1514   1.413       .  A
C1511      C1518   1.409       .  A
C1512      N1529   1.157       .  T
C1513      N1531   1.156       .  T
C1514      C1515   1.409       .  A
C1514      C1519   1.452       .  S
C1515      C1516   1.412       .  A
C1515      C1521   1.451       .  S
C1516      C1517   1.415       .  A
C1517      C1518   1.413       .  A
C1517      C1520   1.450       .  S
C1518      C1522   1.449       .  S
C1519      N1526   1.157       .  T
C1520      N1527   1.157       .  T
C1521      N1525   1.157       .  T
C1522      N1528   1.157       .  T
C1523      N1532   1.157       .  T
C1524      N1530   1.157       .  T
C1533      C1534   1.412       .  A
C1533      C1538   1.414       .  A
C1533      C1551   1.450       .  S
C1534      C1539   1.503       .  S
C1534      C1535   1.413       .  A
C1535      C1536   1.411       .  A
C1535      C1540   1.452       .  S
C1536      C1537   1.417       .  A
C1536      C1552   1.452       .  S
C1537      C1538   1.416       .  A
C1538      C1541   1.450       .  S
C1539      C1542   1.409       .  A
C1539      C1546   1.412       .  A
C1540      N1557   1.157       .  T
C1541      N1559   1.157       .  T
C1542      C1543   1.409       .  A
C1542      C1547   1.452       .  S
C1543      C1544   1.420       .  A
C1543      C1549   1.452       .  S
C1544      C1545   1.416       .  A
C1545      C1546   1.416       .  A
C1545      C1548   1.447       .  S
C1546      C1550   1.451       .  S
C1547      N1554   1.157       .  T
C1548      N1555   1.157       .  T
C1549      N1553   1.157       .  T
C1550      N1556   1.157       .  T
C1551      N1560   1.157       .  T
C1552      N1558   1.158       .  T
C1561      C1562   1.411       .  A
C1561      C1566   1.410       .  A
C1561      C1579   1.452       .  S
C1562      C1567   1.503       .  S
C1562      C1563   1.411       .  A
C1563      C1564   1.418       .  A
C1563      C1568   1.448       .  S
C1564      C1565   1.415       .  A
C1564      C1580   1.449       .  S
C1565      C1566   1.413       .  A
C1566      C1569   1.448       .  S
C1567      C1570   1.411       .  A
C1567      C1574   1.408       .  A
C1568      N1585   1.157       .  T
C1569      N1587   1.156       .  T
C1570      C1571   1.418       .  A
C1570      C1575   1.450       .  S
C1571      C1572   1.417       .  A
C1571      C1577   1.447       .  S
C1572      C1573   1.420       .  A
C1573      C1574   1.410       .  A
C1573      C1576   1.452       .  S
C1574      C1578   1.451       .  S
C1575      N1582   1.157       .  T
C1576      N1583   1.157       .  T
C1577      N1581   1.157       .  T
C1578      N1584   1.157       .  T
C1579      N1588   1.157       .  T
C1580      N1586   1.157       .  T
C1589      C1590   1.414       .  A
C1589      C1594   1.415       .  A
C1589      C1607   1.451       .  S
C1590      C1595   1.510       .  S
C1590      C1591   1.413       .  A
C1591      C1592   1.417       .  A
C1591      C1596   1.449       .  S
C1592      C1593   1.415       .  A
C1592      C1608   1.450       .  S
C1593      C1594   1.414       .  A
C1594      C1597   1.451       .  S
C1595      C1598   1.411       .  A
C1595      C1602   1.410       .  A
C1596      N1613   1.157       .  T
C1597      N1615   1.157       .  T
C1598      C1599   1.419       .  A
C1598      C1603   1.450       .  S
C1599      C1600   1.417       .  A
C1599      C1605   1.446       .  S
C1600      C1601   1.422       .  A
C1601      C1602   1.414       .  A
C1601      C1604   1.451       .  S
C1602      C1606   1.451       .  S
C1603      N1610   1.157       .  T
C1604      N1611   1.157       .  T
C1605      N1609   1.157       .  T
C1606      N1612   1.157       .  T
C1607      N1616   1.157       .  T
C1608      N1614   1.157       .  T
C1617      C1618   1.411       .  A
C1617      C1622   1.416       .  A
C1617      C1635   1.449       .  S
C1618      C1623   1.500       .  S
C1618      C1619   1.412       .  A
C1619      C1620   1.408       .  A
C1619      C1624   1.452       .  S
C1620      C1621   1.411       .  A
C1620      C1636   1.450       .  S
C1621      C1622   1.413       .  A
C1622      C1625   1.449       .  S
C1623      C1626   1.409       .  A
C1623      C1630   1.408       .  A
C1624      N1641   1.157       .  T
C1625      N1643   1.157       .  T
C1626      C1627   1.417       .  A
C1626      C1631   1.450       .  S
C1627      C1628   1.418       .  A
C1627      C1633   1.446       .  S
C1628      C1629   1.420       .  A
C1629      C1630   1.409       .  A
C1629      C1632   1.452       .  S
C1630      C1634   1.452       .  S
C1631      N1638   1.157       .  T
C1632      N1639   1.157       .  T
C1633      N1637   1.157       .  T
C1634      N1640   1.157       .  T
C1635      N1644   1.157       .  T
C1636      N1642   1.157       .  T
C1645      C1646   1.412       .  A
C1645      C1650   1.416       .  A
C1645      C1663   1.449       .  S
C1646      C1651   1.504       .  S
C1646      C1647   1.414       .  A
C1647      C1648   1.411       .  A
C1647      C1652   1.451       .  S
C1648      C1649   1.412       .  A
C1648      C1664   1.451       .  S
C1649      C1650   1.412       .  A
C1650      C1653   1.449       .  S
C1651      C1654   1.411       .  A
C1651      C1658   1.409       .  A
C1652      N1669   1.157       .  T
C1653      N1671   1.157       .  T
C1654      C1655   1.417       .  A
C1654      C1659   1.451       .  S
C1655      C1656   1.417       .  A
C1655      C1661   1.449       .  S
C1656      C1657   1.418       .  A
C1657      C1658   1.412       .  A
C1657      C1660   1.450       .  S
C1658      C1662   1.451       .  S
C1659      N1666   1.157       .  T
C1660      N1667   1.157       .  T
C1661      N1665   1.157       .  T
C1662      N1668   1.157       .  T
C1663      N1672   1.157       .  T
C1664      N1670   1.157       .  T
C1673      C1674   1.411       .  A
C1673      C1678   1.415       .  A
C1673      C1691   1.450       .  S
C1674      C1679   1.505       .  S
C1674      C1675   1.413       .  A
C1675      C1676   1.412       .  A
C1675      C1680   1.452       .  S
C1676      C1677   1.420       .  A
C1676      C1692   1.451       .  S
C1677      C1678   1.419       .  A
C1678      C1681   1.451       .  S
C1679      C1682   1.411       .  A
C1679      C1686   1.412       .  A
C1680      N1697   1.157       .  T
C1681      N1699   1.157       .  T
C1682      C1683   1.410       .  A
C1682      C1687   1.452       .  S
C1683      C1684   1.420       .  A
C1683      C1689   1.453       .  S
C1684      C1685   1.416       .  A
C1685      C1686   1.416       .  A
C1685      C1688   1.447       .  S
C1686      C1690   1.451       .  S
C1687      N1694   1.157       .  T
C1688      N1695   1.157       .  T
C1689      N1693   1.157       .  T
C1690      N1696   1.157       .  T
C1691      N1700   1.157       .  T
C1692      N1698   1.158       .  T
C1701      C1702   1.412       .  A
C1701      C1706   1.416       .  A
C1701      C1719   1.449       .  S
C1702      C1707   1.505       .  S
C1702      C1703   1.414       .  A
C1703      C1704   1.413       .  A
C1703      C1708   1.451       .  S
C1704      C1705   1.413       .  A
C1704      C1720   1.451       .  S
C1705      C1706   1.414       .  A
C1706      C1709   1.450       .  S
C1707      C1710   1.408       .  A
C1707      C1714   1.410       .  A
C1708      N1725   1.157       .  T
C1709      N1727   1.157       .  T
C1710      C1711   1.412       .  A
C1710      C1715   1.452       .  S
C1711      C1712   1.423       .  A
C1711      C1717   1.452       .  S
C1712      C1713   1.418       .  A
C1713      C1714   1.419       .  A
C1713      C1716   1.446       .  S
C1714      C1718   1.450       .  S
C1715      N1722   1.157       .  T
C1716      N1723   1.157       .  T
C1717      N1721   1.157       .  T
C1718      N1724   1.157       .  T
C1719      N1728   1.157       .  T
C1720      N1726   1.157       .  T
C1729      C1730   1.413       .  A
C1729      C1734   1.412       .  A
C1729      C1747   1.451       .  S
C1730      C1735   1.504       .  S
C1730      C1731   1.412       .  A
C1731      C1732   1.415       .  A
C1731      C1736   1.449       .  S
C1732      C1733   1.415       .  A
C1732      C1748   1.450       .  S
C1733      C1734   1.415       .  A
C1734      C1737   1.451       .  S
C1735      C1738   1.411       .  A
C1735      C1742   1.409       .  A
C1736      N1753   1.157       .  T
C1737      N1755   1.157       .  T
C1738      C1739   1.417       .  A
C1738      C1743   1.451       .  S
C1739      C1740   1.417       .  A
C1739      C1745   1.447       .  S
C1740      C1741   1.420       .  A
C1741      C1742   1.411       .  A
C1741      C1744   1.452       .  S
C1742      C1746   1.452       .  S
C1743      N1750   1.157       .  T
C1744      N1751   1.157       .  T
C1745      N1749   1.157       .  T
C1746      N1752   1.157       .  T
C1747      N1756   1.157       .  T
C1748      N1754   1.157       .  T
C1757      C1758   1.414       .  A
C1757      C1762   1.412       .  A
C1757      C1775   1.452       .  S
C1758      C1763   1.503       .  S
C1758      C1759   1.411       .  A
C1759      C1760   1.414       .  A
C1759      C1764   1.450       .  S
C1760      C1761   1.415       .  A
C1760      C1776   1.450       .  S
C1761      C1762   1.416       .  A
C1762      C1765   1.452       .  S
C1763      C1766   1.411       .  A
C1763      C1770   1.410       .  A
C1764      N1781   1.157       .  T
C1765      N1783   1.157       .  T
C1766      C1767   1.416       .  A
C1766      C1771   1.451       .  S
C1767      C1768   1.416       .  A
C1767      C1773   1.447       .  S
C1768      C1769   1.419       .  A
C1769      C1770   1.410       .  A
C1769      C1772   1.452       .  S
C1770      C1774   1.452       .  S
C1771      N1778   1.157       .  T
C1772      N1779   1.157       .  T
C1773      N1777   1.157       .  T
C1774      N1780   1.157       .  T
C1775      N1784   1.157       .  T
C1776      N1782   1.157       .  T
C1785      C1786   1.410       .  A
C1785      C1790   1.413       .  A
C1785      C1803   1.450       .  S
C1786      C1791   1.502       .  S
C1786      C1787   1.412       .  A
C1787      C1788   1.413       .  A
C1787      C1792   1.451       .  S
C1788      C1789   1.418       .  A
C1788      C1804   1.452       .  S
C1789      C1790   1.417       .  A
C1790      C1793   1.450       .  S
C1791      C1794   1.409       .  A
C1791      C1798   1.411       .  A
C1792      N1809   1.157       .  T
C1793      N1811   1.157       .  T
C1794      C1795   1.408       .  A
C1794      C1799   1.452       .  S
C1795      C1796   1.421       .  A
C1795      C1801   1.453       .  S
C1796      C1797   1.417       .  A
C1797      C1798   1.418       .  A
C1797      C1800   1.447       .  S
C1798      C1802   1.450       .  S
C1799      N1806   1.157       .  T
C1800      N1807   1.157       .  T
C1801      N1805   1.157       .  T
C1802      N1808   1.157       .  T
C1803      N1812   1.157       .  T
C1804      N1810   1.158       .  T
C1813      C1814   1.413       .  A
C1813      C1818   1.417       .  A
C1813      C1831   1.450       .  S
C1814      C1819   1.509       .  S
C1814      C1815   1.414       .  A
C1815      C1816   1.415       .  A
C1815      C1820   1.450       .  S
C1816      C1817   1.415       .  A
C1816      C1832   1.451       .  S
C1817      C1818   1.416       .  A
C1818      C1821   1.450       .  S
C1819      C1822   1.409       .  A
C1819      C1826   1.414       .  A
C1820      N1837   1.157       .  T
C1821      N1839   1.157       .  T
C1822      C1823   1.411       .  A
C1822      C1827   1.452       .  S
C1823      C1824   1.422       .  A
C1823      C1829   1.453       .  S
C1824      C1825   1.416       .  A
C1825      C1826   1.421       .  A
C1825      C1828   1.447       .  S
C1826      C1830   1.450       .  S
C1827      N1834   1.157       .  T
C1828      N1835   1.157       .  T
C1829      N1833   1.157       .  T
C1830      N1836   1.157       .  T
C1831      N1840   1.157       .  T
C1832      N1838   1.157       .  T
C1841      C1842   1.413       .  A
C1841      C1846   1.412       .  A
C1841      C1859   1.451       .  S
C1842      C1847   1.504       .  S
C1842      C1843   1.412       .  A
C1843      C1844   1.417       .  A
C1843      C1848   1.449       .  S
C1844      C1845   1.414       .  A
C1844      C1860   1.450       .  S
C1845      C1846   1.414       .  A
C1846      C1849   1.452       .  S
C1847      C1850   1.412       .  A
C1847      C1854   1.408       .  A
C1848      N1865   1.157       .  T
C1849      N1867   1.157       .  T
C1850      C1851   1.419       .  A
C1850      C1855   1.450       .  S
C1851      C1852   1.415       .  A
C1851      C1857   1.447       .  S
C1852      C1853   1.421       .  A
C1853      C1854   1.410       .  A
C1853      C1856   1.453       .  S
C1854      C1858   1.451       .  S
C1855      N1862   1.157       .  T
C1856      N1863   1.157       .  T
C1857      N1861   1.157       .  T
C1858      N1864   1.157       .  T
C1859      N1868   1.157       .  T
C1860      N1866   1.157       .  T
C1869      C1870   1.415       .  A
C1869      C1874   1.419       .  A
C1869      C1887   1.450       .  S
C1870      C1875   1.512       .  S
C1870      C1871   1.411       .  A
C1871      C1872   1.413       .  A
C1871      C1876   1.452       .  S
C1872      C1873   1.421       .  A
C1872      C1888   1.452       .  S
C1873      C1874   1.415       .  A
C1874      C1877   1.447       .  S
C1875      C1878   1.415       .  A
C1875      C1882   1.417       .  A
C1876      N1893   1.157       .  T
C1877      N1895   1.157       .  T
C1878      C1879   1.418       .  A
C1878      C1883   1.449       .  S
C1879      C1880   1.412       .  A
C1879      C1885   1.449       .  S
C1880      C1881   1.411       .  A
C1881      C1882   1.413       .  A
C1881      C1884   1.451       .  S
C1882      C1886   1.451       .  S
C1883      N1890   1.157       .  T
C1884      N1891   1.157       .  T
C1885      N1889   1.157       .  T
C1886      N1892   1.157       .  T
C1887      N1896   1.157       .  T
C1888      N1894   1.158       .  T
C1897      C1898   1.410       .  A
C1897      C1902   1.415       .  A
C1897      C1915   1.450       .  S
C1898      C1903   1.500       .  S
C1898      C1899   1.411       .  A
C1899      C1900   1.410       .  A
C1899      C1904   1.452       .  S
C1900      C1901   1.417       .  A
C1900      C1916   1.450       .  S
C1901      C1902   1.417       .  A
C1902      C1905   1.450       .  S
C1903      C1906   1.411       .  A
C1903      C1910   1.408       .  A
C1904      N1921   1.157       .  T
C1905      N1923   1.157       .  T
C1906      C1907   1.415       .  A
C1906      C1911   1.450       .  S
C1907      C1908   1.415       .  A
C1907      C1913   1.448       .  S
C1908      C1909   1.420       .  A
C1909      C1910   1.408       .  A
C1909      C1912   1.453       .  S
C1910      C1914   1.452       .  S
C1911      N1918   1.157       .  T
C1912      N1919   1.157       .  T
C1913      N1917   1.157       .  T
C1914      N1920   1.157       .  T
C1915      N1924   1.157       .  T
C1916      N1922   1.157       .  T
C1925      C1926   1.415       .  A
C1925      C1930   1.411       .  A
C1925      C1943   1.451       .  S
C1926      C1931   1.506       .  S
C1926      C1927   1.413       .  A
C1927      C1928   1.416       .  A
C1927      C1932   1.449       .  S
C1928      C1929   1.412       .  A
C1928      C1944   1.449       .  S
C1929      C1930   1.411       .  A
C1930      C1933   1.451       .  S
C1931      C1934   1.412       .  A
C1931      C1938   1.409       .  A
C1932      N1949   1.157       .  T
C1933      N1951   1.157       .  T
C1934      C1935   1.418       .  A
C1934      C1939   1.450       .  S
C1935      C1936   1.415       .  A
C1935      C1941   1.447       .  S
C1936      C1937   1.421       .  A
C1937      C1938   1.412       .  A
C1937      C1940   1.452       .  S
C1938      C1942   1.452       .  S
C1939      N1946   1.157       .  T
C1940      N1947   1.157       .  T
C1941      N1945   1.157       .  T
C1942      N1948   1.157       .  T
C1943      N1952   1.157       .  T
C1944      N1950   1.157       .  T
C1953      C1954   1.411       .  A
C1953      C1958   1.414       .  A
C1953      C1971   1.449       .  S
C1954      C1959   1.504       .  S
C1954      C1955   1.413       .  A
C1955      C1956   1.414       .  A
C1955      C1960   1.451       .  S
C1956      C1957   1.416       .  A
C1956      C1972   1.451       .  S
C1957      C1958   1.415       .  A
C1958      C1961   1.450       .  S
C1959      C1962   1.411       .  A
C1959      C1966   1.408       .  A
C1960      N1977   1.157       .  T
C1961      N1979   1.157       .  T
C1962      C1963   1.419       .  A
C1962      C1967   1.450       .  S
C1963      C1964   1.417       .  A
C1963      C1969   1.447       .  S
C1964      C1965   1.420       .  A
C1965      C1966   1.410       .  A
C1965      C1968   1.452       .  S
C1966      C1970   1.452       .  S
C1967      N1974   1.157       .  T
C1968      N1975   1.157       .  T
C1969      N1973   1.157       .  T
C1970      N1976   1.157       .  T
C1971      N1980   1.157       .  T
C1972      N1978   1.157       .  T
