geometry optimzed in LAMMPS
_audit_creation_date              2020-12-01 
_audit_creation_method            'lammps2cif' 
_symmetry_space_group_name_H-M    'P1' 
_symmetry_Int_Tables_number       1 
_symmetry_cell_setting            triclinic 
loop_ 
_symmetry_equiv_pos_as_xyz 
  x,y,z 
_cell_length_a                    40.58341518 
_cell_length_b                    41.3413898217784 
_cell_length_c                    38.42952077513176 
_cell_angle_alpha                 90.92880812079365 
_cell_angle_beta                  109.51375990067775 
_cell_angle_gamma                 89.49462777496184 
loop_ 
_atom_site_label 
_atom_site_type_symbol 
_atom_site_fract_x 
_atom_site_fract_y 
_atom_site_fract_z 
_atom_site_charge 
C1          C  0.81207349  0.08337470  0.42133748     0.30100
C2          C  0.84268225  0.04408104  0.38283989     0.30100
C3          C  0.82544349  0.09995924  0.39300095    -0.06100
C4          C  0.84626451  0.06615672  0.44549739    -0.06900
C5          C  0.79037066  0.05393014  0.40097782    -0.06800
C6          C  0.84069932  0.08018283  0.37381416    -0.06100
C7          C  0.86221678  0.04536987  0.42523402    -0.06900
C8          C  0.80573539  0.03450298  0.38159144    -0.06800
C9          C  0.85486861  0.09979055  0.35356416    -0.32200
N10         N  0.84892342  0.13125588  0.36027936     0.14300
C11         C  0.83084671  0.13161940  0.38443187    -0.32200
H12         H  0.82128678  0.15327821  0.39417153     0.16300
C13         C  0.88024638  0.02185170  0.44955278    -0.31100
N14         N  0.87796307  0.02836733  0.48332839     0.13100
C15         C  0.85631726  0.05404176  0.48073344    -0.31100
C16         C  0.78235918  0.00997882  0.36565534    -0.31400
N17         N  0.75259275  0.01426187  0.37424506     0.13600
H18         H  0.78666012  0.49097722  0.34801240     0.16200
C19         C  0.75740756  0.04100174  0.39635088    -0.31400
H20         H  0.73801407  0.05098772  0.40718765     0.16200
H21         H  0.84539709  0.06059931  0.50191378     0.16200
H22         H  0.86800594  0.09167421  0.33466508     0.16300
H23         H  0.89126818  0.99981143  0.44252467     0.16200
Fe24       Fe  0.66980544  0.19002194  0.37157441     1.65800
Fe25       Fe  0.59984525  0.23153714  0.37118223     1.73200
Fe26       Fe  0.67499694  0.23376760  0.44581812     1.54400
O27         O  0.70734619  0.19172059  0.45971758    -0.81600
O28         O  0.61581070  0.27873730  0.37889883    -0.79900
O29         O  0.67365225  0.16175478  0.41571371    -0.84100
O30         O  0.71859802  0.21134225  0.39581622    -0.79000
O31         O  0.63782620  0.21368170  0.46382738    -0.80700
O32         O  0.60643746  0.23383587  0.31935663    -0.83500
C33         C  0.72752023  0.23934316  0.40974384     0.97300
C34         C  0.70214437  0.16533380  0.44133700     1.04700
O35         O  0.64811449  0.21955873  0.39540322    -1.12500
O36         O  0.58177150  0.18379281  0.35999710    -0.74900
O37         O  0.62563683  0.16591596  0.34257130    -0.78400
O38         O  0.71136796  0.25450417  0.42780083    -0.79100
C39         C  0.59477878  0.16353337  0.34278246     0.96200
O40         O  0.66211313  0.21968288  0.32779717    -0.77000
O41         O  0.58971426  0.23287012  0.42134877    -0.82200
C42         C  0.63568796  0.29335973  0.40740080     0.98800
C43         C  0.60681151  0.22468961  0.45448377     1.04700
O44         O  0.65038183  0.27897966  0.43781987    -0.77900
C45         C  0.63335852  0.23287651  0.30915553     1.03000
C46         C  0.68713184  0.33674366  0.14964197     0.30100
C47         C  0.65413722  0.30150994  0.18836633     0.30100
C48         C  0.66829529  0.35686173  0.17234555    -0.06100
C49         C  0.65774534  0.31403830  0.12683024    -0.06900
C50         C  0.71088023  0.31328414  0.17893651    -0.06800
C51         C  0.65042147  0.33853590  0.19020550    -0.06100
C52         C  0.64056923  0.29594413  0.14616685    -0.06900
C53         C  0.69356024  0.29575200  0.19806688    -0.06800
C54         C  0.63411219  0.35940731  0.20767074    -0.32200
N55         N  0.64327476  0.39007207  0.20376991     0.14300
C56         C  0.66490554  0.38887048  0.18310140    -0.32200
H57         H  0.67964715  0.40931029  0.17918583     0.16300
C58         C  0.61547065  0.27789853  0.11995030    -0.31100
N59         N  0.61801710  0.28381842  0.08631315     0.13100
C60         C  0.64345994  0.30597892  0.09019130    -0.31100
C61         C  0.71428527  0.26956594  0.21338479    -0.31400
N62         N  0.74435459  0.27062101  0.20543960     0.13600
H63         H  0.70705093  0.25004527  0.22780955     0.16200
C64         C  0.74301837  0.29745290  0.18506276    -0.31400
H65         H  0.76389391  0.30428432  0.17516482     0.16200
H66         H  0.65203576  0.31440577  0.06809773     0.16200
H67         H  0.61881015  0.35270784  0.22470879     0.16300
H68         H  0.59669240  0.26154968  0.12432927     0.16200
Fe69       Fe  0.82334378  0.43385172  0.19653177     1.65800
Fe70       Fe  0.89691128  0.47085757  0.19775344     1.73200
Fe71       Fe  0.82056110  0.98035500  0.12645535     1.54400
O72         O  0.78494596  0.44156681  0.10995702    -0.81600
O73         O  0.88348701  0.01927338  0.19549790    -0.79900
O74         O  0.80912876  0.40408267  0.15104008    -0.84100
O75         O  0.77727331  0.46079905  0.17710238    -0.79000
O76         O  0.85382933  0.45693847  0.10461487    -0.80700
O77         O  0.89386190  0.47262582  0.25157087    -0.83500
C78         C  0.77010678  0.48933543  0.16455905     0.97300
C79         C  0.78537707  0.41301348  0.12208612     1.04700
O80         O  0.84744056  0.46133257  0.17379716    -1.12500
O81         O  0.91157324  0.42182019  0.20500543    -0.74900
O82         O  0.86591158  0.40511461  0.21997045    -0.78400
O83         O  0.78781052  0.00415598  0.14843560    -0.79100
C84         C  0.89698700  0.40163395  0.22013808     0.96200
O85         O  0.83754090  0.46240766  0.24215401    -0.77000
O86         O  0.90446956  0.47300998  0.14555075    -0.82200
C87         C  0.86356630  0.03537521  0.16876293     0.98800
C88         C  0.88513202  0.46621511  0.11226592     1.04700
O89         O  0.85048557  0.02249621  0.13690136    -0.77900
C90         C  0.86687590  0.47402809  0.26156080     1.03000
Fe91       Fe  0.63972601  0.48697486  0.34008560     1.65800
Fe92       Fe  0.68729717  0.44484682  0.29775555     1.73200
Fe93       Fe  0.61328843  0.48202989  0.24731057     1.54400
O94         O  0.57637578  0.45572620  0.25943319    -0.81600
O95         O  0.69304887  0.47116120  0.25409854    -0.79900
O96         O  0.58542404  0.47559791  0.31658051    -0.84100
O97         O  0.63084997  0.03327677  0.32164966    -0.79000
O98         O  0.62640234  0.44218226  0.21838672    -0.80700
O99         O  0.72158506  0.47612241  0.33218170    -0.83500
C100        C  0.60454082  0.04162246  0.29489854     0.97300
C101        C  0.56564046  0.46216470  0.28633880     1.04700
O102        O  0.64706178  0.47135982  0.29550703    -1.12500
O103        O  0.68409255  0.41626368  0.34085874    -0.74900
O104        O  0.64620390  0.44201687  0.36229778    -0.78400
O105        O  0.59328524  0.02420254  0.26574257    -0.79100
C106        C  0.66379633  0.41724224  0.35995315     0.96200
O107        O  0.69331258  0.50080434  0.36577373    -0.77000
O108        O  0.65730010  0.41060943  0.26320328    -0.82200
C109        C  0.67882129  0.49613289  0.23559875     0.98800
C110        C  0.64204529  0.41547237  0.22937178     1.04700
O111        O  0.64993098  0.00847085  0.23577206    -0.77900
C112        C  0.72099501  0.49609611  0.35715030     1.03000
Fe113      Fe  0.84987504  0.22923720  0.22832428     1.65800
Fe114      Fe  0.80257605  0.19263684  0.27292180     1.73200
Fe115      Fe  0.88173618  0.22295121  0.32129644     1.54400
O116        O  0.91548934  0.19528696  0.30414551    -0.81600
O117        O  0.80193385  0.21846311  0.31940571    -0.79900
O118        O  0.90299790  0.21589929  0.24762438    -0.84100
O119        O  0.86115973  0.27472780  0.24869064    -0.79000
O120        O  0.86874015  0.18242554  0.34820789    -0.80700
O121        O  0.77116484  0.22838638  0.24340180    -0.83500
C122        C  0.88896652  0.28224600  0.27412778     0.97300
C123        C  0.92397611  0.20189134  0.27608091     1.04700
O124        O  0.84465982  0.21484572  0.27401660    -1.12500
O125        O  0.80054659  0.16388016  0.22711351    -0.74900
O126        O  0.84021859  0.18375089  0.20490496    -0.78400
O127        O  0.90127986  0.26478671  0.30277112    -0.79100
C128        C  0.82123821  0.16082662  0.20856211     0.96200
O129        O  0.79793493  0.24662919  0.20590079    -0.77000
O130        O  0.82965965  0.15532561  0.30335465    -0.82800
C131        C  0.81909171  0.24184602  0.33917884     0.98800
C132        C  0.84970595  0.15742522  0.33627969     1.04700
O133        O  0.84881655  0.25099055  0.33914684    -0.77900
C134        C  0.77249368  0.24736734  0.21849273     1.03000
C135        C  0.17578999  0.09662967  0.12772271     0.30100
C136        C  0.14553103  0.05997682  0.16792448     0.30100
C137        C  0.16296180  0.11550975  0.15635664    -0.06100
C138        C  0.14212220  0.07802134  0.10547041    -0.06900
C139        C  0.19918906  0.06921162  0.15133348    -0.06800
C140        C  0.14715624  0.09650093  0.17562476    -0.06100
C141        C  0.12658209  0.05888993  0.12589900    -0.06900
C142        C  0.18271400  0.05042937  0.16987131    -0.06800
C143        C  0.13421093  0.11640404  0.19714256    -0.32200
N144        N  0.14171305  0.14740080  0.19228226     0.14300
C145        C  0.16017140  0.14724457  0.16836552    -0.32200
H146        H  0.17189517  0.16857351  0.16159294     0.16300
C147        C  0.10435831  0.03767127  0.10096554    -0.31100
N148        N  0.10440950  0.04463366  0.06651682     0.13100
C149        C  0.12762479  0.06880080  0.06916424    -0.31100
C150        C  0.20485490  0.02559796  0.18631059    -0.31400
N151        N  0.23566225  0.02899846  0.18032303     0.13600
H152        H  0.19936918  0.50678817  0.20234657     0.16200
C153        C  0.23300570  0.05591430  0.15961914    -0.31400
H154        H  0.25463999  0.06544147  0.15260284     0.16200
H155        H  0.13621228  0.07652958  0.04680875     0.16200
H156        H  0.12121586  0.10875546  0.21605245     0.16300
H157        H  0.09156821  0.01693268  0.10747752     0.16200
Fe158      Fe  0.31507729  0.20212335  0.19207069     1.65800
Fe159      Fe  0.38951170  0.23587579  0.19063528     1.73200
Fe160      Fe  0.31432719  0.24389294  0.11812284     1.54400
O161        O  0.27806280  0.20605491  0.10244651    -0.81600
O162        O  0.37698274  0.28409043  0.18715355    -0.79900
O163        O  0.29739078  0.17076002  0.14765357    -0.84100
O164        O  0.27071324  0.23085375  0.17252457    -0.79000
O165        O  0.34826671  0.21884599  0.09850494    -0.80700
O166        O  0.38726136  0.23853113  0.24459736    -0.83500
C167        C  0.26314904  0.25769252  0.15576777     0.97300
C168        C  0.27620222  0.17878636  0.11647947     1.04700
O169        O  0.33972237  0.22699207  0.16711343    -1.12500
O170        O  0.40235683  0.18684151  0.19787956    -0.74900
O171        O  0.35710078  0.17206778  0.21501731    -0.78400
O172        O  0.28024116  0.26944343  0.13688631    -0.79100
C173        C  0.38768855  0.16745956  0.21375671     0.96200
O174        O  0.33125556  0.23114844  0.23838616    -0.77000
O175        O  0.39776760  0.23711674  0.13903366    -0.82200
C176        C  0.35687350  0.29892525  0.15943880     0.98800
C177        C  0.37911242  0.22935380  0.10594592     1.04700
O178        O  0.34524367  0.28515873  0.12797090    -0.77900
C179        C  0.36204552  0.23967032  0.25744265     1.03000
C180        C  0.30535976  0.34848856  0.41198330     0.30100
C181        C  0.33849564  0.30948296  0.37481152     0.30100
C182        C  0.32304825  0.36636753  0.38730359    -0.06100
C183        C  0.33535573  0.32724550  0.43587839    -0.06900
C184        C  0.28182897  0.32343994  0.38432218    -0.06800
C185        C  0.33960185  0.34639163  0.36832207    -0.06100
C186        C  0.35193873  0.30722538  0.41717072    -0.06900
C187        C  0.29877441  0.30410296  0.36549681    -0.06800
C188        C  0.34775682  0.36581442  0.34316354    -0.32200
N189        N  0.33934576  0.39693873  0.34791817     0.14300
C190        C  0.32296715  0.39745060  0.37356184    -0.32200
H191        H  0.30925141  0.41841044  0.37903568     0.16300
C192        C  0.37265650  0.28591427  0.44274174    -0.31100
N193        N  0.36983623  0.29313020  0.47629539     0.13100
C194        C  0.34704953  0.31821043  0.47227376    -0.31100
C195        C  0.27465622  0.28187827  0.34498800    -0.31400
N196        N  0.24424255  0.28556506  0.35209114     0.13600
H197        H  0.27895170  0.26356793  0.32658655     0.16200
C198        C  0.24765995  0.31174982  0.37474020    -0.31400
H199        H  0.22680016  0.32107090  0.38365893     0.16200
H200        H  0.33740118  0.32730324  0.49365117     0.16200
H201        H  0.35636242  0.35793033  0.32065541     0.16300
H202        H  0.38689750  0.26543065  0.43697372     0.16200
Fe203      Fe  0.16939019  0.45338873  0.35682596     1.65800
Fe204      Fe  0.09440754  0.49016090  0.35411351     1.73200
Fe205      Fe  0.16890815  0.99943418  0.42853633     1.54400
O206        O  0.20490176  0.46053126  0.44491290    -0.81600
O207        O  0.10649007  0.03824332  0.35904980    -0.79900
O208        O  0.18367193  0.42341890  0.40135692    -0.84100
O209        O  0.21485046  0.48161803  0.37737589    -0.79000
O210        O  0.13428619  0.47667855  0.44806404    -0.80700
O211        O  0.09905162  0.49186078  0.30087322    -0.83500
C212        C  0.22098435  0.51015924  0.39132496     0.97300
C213        C  0.20584963  0.43216323  0.43167768     1.04700
O214        O  0.14388994  0.48074287  0.37955886    -1.12500
O215        O  0.08046518  0.44144041  0.34542631    -0.74900
O216        O  0.12728539  0.42393482  0.33229152    -0.78400
O217        O  0.20288479  0.02349622  0.40918489    -0.79100
C218        C  0.09580709  0.42082044  0.33098534     0.96200
O219        O  0.15545591  0.48103944  0.31123207    -0.77000
O220        O  0.08453935  0.49160980  0.40471592    -0.82200
C221        C  0.12612462  0.05437493  0.38639906     0.98800
C222        C  0.10218381  0.48455733  0.43815305     1.04700
O223        O  0.13866820  0.04174051  0.41809493    -0.77900
C224        C  0.12615208  0.49203450  0.29103419     1.03000
Fe225      Fe  0.13732692  0.24580371  0.32744385     1.65800
Fe226      Fe  0.18526671  0.20861993  0.28200227     1.73200
Fe227      Fe  0.10567461  0.23746196  0.23417623     1.54400
O228        O  0.07377184  0.20872975  0.25149541    -0.81600
O229        O  0.18560469  0.23531956  0.23653367    -0.79900
O230        O  0.08513762  0.22934626  0.30869012    -0.84100
O231        O  0.12278325  0.29048002  0.30734214    -0.79000
O232        O  0.12033470  0.19783642  0.20604543    -0.80700
O233        O  0.21632155  0.24384442  0.31322007    -0.83500
C234        C  0.09587774  0.29739246  0.28061072     0.97300
C235        C  0.06544218  0.21374595  0.28024576     1.04700
O236        O  0.14293463  0.23071931  0.28147539    -1.12500
O237        O  0.18694731  0.17963529  0.32650969    -0.74900
O238        O  0.15013722  0.20165875  0.35211310    -0.78400
O239        O  0.08432840  0.27880405  0.25240514    -0.79100
C240        C  0.16841379  0.17813181  0.34748130     0.96200
O241        O  0.18848007  0.26538512  0.34888853    -0.77000
O242        O  0.15933298  0.17102435  0.25028326    -0.82200
C243        C  0.16749203  0.25827247  0.21714032     0.98800
C244        C  0.14020600  0.17332666  0.21713144     1.04700
O245        O  0.13721971  0.26633804  0.21686622    -0.77900
C246        C  0.21474038  0.26406653  0.33754714     1.03000
Fe247      Fe  0.34454192  0.49042679  0.21284357     1.65800
Fe248      Fe  0.29384334  0.45755028  0.25696360     1.73200
Fe249      Fe  0.37331003  0.48621164  0.30621037     1.54400
O250        O  0.40659420  0.45658597  0.29097330    -0.81600
O251        O  0.29220158  0.48611686  0.30150323    -0.79900
O252        O  0.39795039  0.47592870  0.23461334    -0.84100
O253        O  0.35720247  0.03605445  0.23173588    -0.79000
O254        O  0.35879866  0.44723781  0.33369065    -0.80700
O255        O  0.26423240  0.49219054  0.22409198    -0.83500
C256        C  0.38327167  0.04417025  0.25903411     0.97300
C257        C  0.41747203  0.46240074  0.26437547     1.04700
O258        O  0.33705372  0.47801524  0.25843450    -1.12500
O259        O  0.29254862  0.42723567  0.21283028    -0.74900
O260        O  0.33311838  0.44511046  0.19042217    -0.78400
O261        O  0.39403770  0.02714213  0.28811569    -0.79100
C262        C  0.31241280  0.42351037  0.19344010     0.96200
O263        O  0.29280441  0.50842916  0.18736181    -0.77000
O264        O  0.31822091  0.42022251  0.29016632    -0.82200
C265        C  0.31029650  0.50908268  0.32133312     0.98800
C266        C  0.33893509  0.42265961  0.32285238     1.04700
O267        O  0.34096903  0.51608639  0.32253092    -0.77900
C268        C  0.26590525  0.50908204  0.19767665     1.03000
C269        C  0.07799030  0.39184139  0.31076022    -0.05400
C270        C  0.07105948  0.36610668  0.33042267    -0.32800
C271        C  0.07108279  0.33429388  0.31720667     0.36400
C272        C  0.07852533  0.32812763  0.28429014    -0.05800
C273        C  0.07974161  0.35406411  0.26188968    -0.32700
C274        C  0.07951296  0.38589944  0.27498927     0.36300
H275        H  0.06994324  0.37020335  0.35793023     0.16700
O276        O  0.06856293  0.30917836  0.33906306    -0.60200
H277        H  0.08526176  0.34976575  0.23649197     0.16700
O278        O  0.08481181  0.41100394  0.25451509    -0.60300
H279        H  0.11019061  0.41069199  0.25812155     0.43700
H280        H  0.04365050  0.30266256  0.32952460     0.43700
C281        C  0.13823034  0.08664257  0.37899180    -0.05400
C282        C  0.14416013  0.11284953  0.40409231    -0.32800
C283        C  0.15582288  0.14285020  0.39549056     0.36400
C284        C  0.16349778  0.14629937  0.36239804    -0.05800
C285        C  0.15925644  0.11950512  0.33863923    -0.32700
C286        C  0.14621193  0.09043951  0.34623666     0.36300
H287        H  0.13865323  0.11042463  0.42962984     0.16700
O288        O  0.15874224  0.16875973  0.41903705    -0.60200
H289        H  0.16394310  0.12161458  0.31259456     0.16700
O290        O  0.14090282  0.06581551  0.32077376    -0.60300
H291        H  0.15693836  0.04831015  0.33366099     0.43700
H292        H  0.18312440  0.16794876  0.43630090     0.43700
C293        C  0.29517102  0.52646296  0.34551349    -0.05400
C294        C  0.30704097  0.51901458  0.38308095    -0.32800
C295        C  0.28382035  0.52093071  0.40286979     0.36400
C296        C  0.24864797  0.52866304  0.38420297    -0.05800
C297        C  0.23932632  0.04410248  0.34968711    -0.32700
C298        C  0.26246766  0.04256105  0.32985607     0.36300
H299        H  0.33261011  0.50821369  0.39576064     0.16700
O300        O  0.29484458  0.51246938  0.43920925    -0.60200
H301        H  0.21325890  0.05318371  0.33648147     0.16700
O302        O  0.25175404  0.05214914  0.29382918    -0.60300
H303        H  0.26052000  0.07456462  0.29472111     0.43700
H304        H  0.29889770  0.53324699  0.45320937     0.43700
C305        C  0.23687766  0.41100852  0.44663789    -0.05400
C306        C  0.23306847  0.37740594  0.44807063    -0.32800
C307        C  0.25935604  0.35647573  0.44465440     0.36400
C308        C  0.28672617  0.36900788  0.43373540    -0.05800
C309        C  0.29408217  0.40205115  0.44080161    -0.32700
C310        C  0.26954012  0.42289235  0.44775572     0.36300
H311        H  0.20907108  0.36742452  0.44976461     0.16700
O312        O  0.25693559  0.32398062  0.44988972    -0.60200
H313        H  0.31805213  0.41211519  0.43935670     0.16700
O314        O  0.27582506  0.45534134  0.45055050    -0.60300
H315        H  0.28288476  0.46045805  0.47734162     0.43700
H316        H  0.27060564  0.32049899  0.47625139     0.43700
C317        C  0.40072983  0.07436157  0.25505311    -0.05400
C318        C  0.40302366  0.10024747  0.27957198    -0.32800
C319        C  0.40529045  0.13195016  0.26820768     0.36400
C320        C  0.40493885  0.13779893  0.23191060    -0.05800
C321        C  0.40850907  0.11168596  0.20988953    -0.32700
C322        C  0.40658417  0.07999594  0.22135991     0.36300
H323        H  0.39886021  0.09632604  0.30560097     0.16700
O324        O  0.40245378  0.15722277  0.29061915    -0.60200
H325        H  0.40821148  0.11572519  0.18199242     0.16700
O326        O  0.40587262  0.05486903  0.19734898    -0.60300
H327        H  0.42879157  0.04384910  0.20782899     0.43700
H328        H  0.42682543  0.16413448  0.30383556     0.43700
C329        C  0.34342545  0.33100820  0.16558530    -0.05400
C330        C  0.33657026  0.35549065  0.13913915    -0.32800
C331        C  0.32387526  0.38579206  0.14621467     0.36400
C332        C  0.31608872  0.39101715  0.17904032    -0.05800
C333        C  0.32027058  0.36562136  0.20366487    -0.32700
C334        C  0.33498541  0.33635926  0.19791237     0.36300
H335        H  0.34236875  0.35156591  0.11384296     0.16700
O336        O  0.32035842  0.41035980  0.12167077    -0.60200
H337        H  0.31499814  0.36929019  0.22932044     0.16700
O338        O  0.34077404  0.31280958  0.22405178    -0.60300
H339        H  0.35617584  0.32284976  0.24732649     0.43700
H340        H  0.29533636  0.41025789  0.10615583     0.43700
C341        C  0.35643433  0.28654892  0.35441482    -0.05400
C342        C  0.38035092  0.29798834  0.33802129    -0.32800
C343        C  0.38603837  0.28098393  0.30860417     0.36400
C344        C  0.36765693  0.25217458  0.29539895    -0.05800
C345        C  0.35089362  0.23723034  0.31745502    -0.32700
C346        C  0.34713085  0.25357304  0.34840206     0.36300
H347        H  0.39414854  0.32039752  0.34731690     0.16700
O348        O  0.40719218  0.29408985  0.29122427    -0.60200
H349        H  0.33974551  0.21335149  0.30992480     0.16700
O350        O  0.33399608  0.23789518  0.37230213    -0.60300
H351        H  0.31656957  0.22186000  0.35772741     0.43700
H352        H  0.43000305  0.28291546  0.30180982     0.43700
C353        C  0.38951955  0.23982847  0.07440926    -0.05400
C354        C  0.40297258  0.27125778  0.07595566    -0.32800
C355        C  0.39885246  0.28823671  0.04351180     0.36400
C356        C  0.38205909  0.27354143  0.00889546    -0.05800
C357        C  0.37303752  0.24073588  0.00729164    -0.32700
C358        C  0.37628937  0.22394575  0.03976710     0.36300
H359        H  0.41298092  0.28410464  0.10216280     0.16700
O360        O  0.40847975  0.32012621  0.04590028    -0.60200
H361        H  0.36046772  0.22904048  0.98078032     0.16700
O362        O  0.36435929  0.19274702  0.03734272    -0.60300
H363        H  0.33848851  0.19445832  0.02824840     0.43700
H364        H  0.42964411  0.32052902  0.03846447     0.43700
C365        C  0.18229797  0.27442429  0.19265009    -0.05400
C366        C  0.21260312  0.29247861  0.20890187    -0.32800
C367        C  0.23839905  0.29274207  0.19247779     0.36400
C368        C  0.23330022  0.27508107  0.15959095    -0.05800
C369        C  0.20017385  0.26276521  0.13989569    -0.32700
C370        C  0.17443804  0.26225030  0.15647422     0.36300
H371        H  0.21858883  0.30201878  0.23677191     0.16700
O372        O  0.27046758  0.30547974  0.21173905    -0.60200
H373        H  0.19608498  0.24916435  0.11448479     0.16700
O374        O  0.14469140  0.24452041  0.14025518    -0.60300
H375        H  0.12671640  0.26054996  0.12710341     0.43700
H376        H  0.28179804  0.28956754  0.23121729     0.43700
C377        C  0.24570553  0.15769567  0.09960281    -0.05400
C378        C  0.21222693  0.17005357  0.09534723    -0.32800
C379        C  0.18565482  0.14931257  0.09722576     0.36400
C380        C  0.19320356  0.11628321  0.10483130    -0.05800
C381        C  0.22248237  0.10366128  0.09724360    -0.32700
C382        C  0.24979599  0.12409567  0.09716652     0.36300
H383        H  0.20775353  0.19591347  0.09460099     0.16700
O384        O  0.15328030  0.16179520  0.09347830    -0.60200
H385        H  0.22578551  0.07785787  0.09496251     0.16700
O386        O  0.28133529  0.11102843  0.09841336    -0.60300
H387        H  0.27977875  0.10825880  0.07223837     0.43700
H388        H  0.13837397  0.15565186  0.06808854     0.43700
C389        C  0.13556356  0.04251304  0.19780805    -0.05400
C390        C  0.10540830  0.52379914  0.19219912    -0.32800
C391        C  0.10014575  0.50782646  0.22240520     0.36400
C392        C  0.12646208  0.50894747  0.25747965    -0.05800
C393        C  0.15594367  0.02726398  0.26211218    -0.32700
C394        C  0.15940874  0.04575017  0.23420433     0.36300
H395        H  0.08573206  0.52194161  0.16518941     0.16700
O396        O  0.07050021  0.48998629  0.21693027    -0.60200
H397        H  0.17691122  0.02802836  0.28818537     0.16700
O398        O  0.18784303  0.06588088  0.24244840    -0.60300
H399        H  0.18336487  0.08355999  0.25808680     0.43700
H400        H  0.05250271  0.50586643  0.21829539     0.43700
C401        C  0.09034272  0.02497873  0.03381072    -0.05400
C402        C  0.10000545  0.49174426  0.03430219    -0.32800
C403        C  0.09887827  0.47580279  0.00141376     0.36400
C404        C  0.08791626  0.99180866  0.46837513    -0.05800
C405        C  0.07190012  0.02218758  0.46747276    -0.32700
C406        C  0.07372560  0.03976595  0.99967368     0.36300
H407        H  0.11233333  0.47986515  0.06038826     0.16700
O408        O  0.11298684  0.44440955  0.50262632    -0.60200
H409        H  0.06218981  0.03530654  0.44182958     0.16700
O410        O  0.06314386  0.07143770  0.99844597    -0.60300
H411        H  0.03927702  0.07069572  0.00005418     0.43700
H412        H  0.13773585  0.44714679  0.01381607     0.43700
C413        C  0.96060533  0.19651426  0.27789132    -0.05400
C414        C  0.96843737  0.19538598  0.24505021    -0.32800
C415        C  0.00279961  0.19874141  0.24550535     0.36400
C416        C  0.03031694  0.20329048  0.27940433    -0.05800
C417        C  0.02282258  0.20165142  0.31242578    -0.32700
C418        C  0.98838247  0.19826475  0.31193388     0.36300
H419        H  0.94758628  0.19381709  0.21865531     0.16700
O420        O  0.00867307  0.19965232  0.21238870    -0.60200
H421        H  0.04349436  0.20465929  0.33876452     0.16700
O422        O  0.98210410  0.19900384  0.34487771    -0.60300
H423        H  0.98028358  0.22227839  0.35068899     0.43700
H424        H  0.00444654  0.22246261  0.20439344     0.43700
C425        C  0.52795661  0.45631630  0.28077562    -0.05400
C426        C  0.51612057  0.45685004  0.31111948    -0.32800
C427        C  0.48029135  0.45662952  0.30616047     0.36400
C428        C  0.45514900  0.45622745  0.27014500    -0.05800
C429        C  0.46695746  0.45388855  0.23986879    -0.32700
C430        C  0.50281900  0.45366879  0.24483680     0.36300
H431        H  0.53467430  0.45860167  0.33891042     0.16700
O432        O  0.47029641  0.45852101  0.33689920    -0.60200
H433        H  0.44831794  0.45332294  0.21206223     0.16700
O434        O  0.51279499  0.45223980  0.21407436    -0.60300
H435        H  0.51036044  0.47467566  0.20473178     0.43700
H436        H  0.46971465  0.98124735  0.34307647     0.43700
C437        C  0.91469552  0.37258365  0.23982782    -0.05400
C438        C  0.91521435  0.34465951  0.21898285    -0.32800
C439        C  0.91171492  0.31409196  0.23264035     0.36400
C440        C  0.90721400  0.31118141  0.26742940    -0.05800
C441        C  0.91215718  0.33850744  0.29049769    -0.32700
C442        C  0.91598181  0.36914411  0.27689130     0.36300
H443        H  0.91372564  0.34669011  0.19041724     0.16700
O444        O  0.90832712  0.28751608  0.20987265    -0.60200
H445        H  0.90910116  0.33675363  0.31735164     0.16700
O446        O  0.91644997  0.39612898  0.29835737    -0.60300
H447        H  0.89185700  0.39964649  0.29706595     0.43700
H448        H  0.93120022  0.27620849  0.21906491     0.43700
C449        C  0.85256249  0.06827208  0.17679833    -0.05400
C450        C  0.85032031  0.07394112  0.21203978    -0.32800
C451        C  0.83756322  0.10309171  0.22113288     0.36400
C452        C  0.82751834  0.12820540  0.19535530    -0.05800
C453        C  0.83005951  0.12300304  0.16003729    -0.32700
C454        C  0.84155464  0.09291281  0.15031538     0.36300
H455        H  0.85797288  0.05533923  0.23280384     0.16700
O456        O  0.83716602  0.10741646  0.25637872    -0.60200
H457        H  0.82339247  0.14231849  0.14013939     0.16700
O458        O  0.84340682  0.08842126  0.11559456    -0.60300
H459        H  0.81955372  0.08179367  0.09998748     0.43700
H460        H  0.81273638  0.10297948  0.25474133     0.43700
C461        C  0.74008766  0.50528359  0.16990311    -0.05400
C462        C  0.70797227  0.48954215  0.15557955    -0.32800
C463        C  0.68439460  0.49091701  0.17468287     0.36400
C464        C  0.69369735  0.50752791  0.20869521    -0.05800
C465        C  0.72294280  0.52774152  0.21968845    -0.32700
C466        C  0.74568457  0.52757811  0.19926625     0.36300
H467        H  0.70312636  0.47301035  0.13236492     0.16700
O468        O  0.65526254  0.47168340  0.16321694    -0.60200
H469        H  0.72980360  0.54109067  0.24561531     0.16700
O470        O  0.77565491  0.54556347  0.21126872    -0.60300
H471        H  0.76958181  0.56621436  0.19778408     0.43700
H472        H  0.63594104  0.48622961  0.14939085     0.43700
C473        C  0.75436551  0.39206745  0.10814147    -0.05400
C474        C  0.72172273  0.40549519  0.10531230    -0.32800
C475        C  0.69684626  0.38697862  0.11446627     0.36400
C476        C  0.70516465  0.35483585  0.12628740    -0.05800
C477        C  0.73224802  0.33970118  0.11676715    -0.32700
C478        C  0.75806561  0.35829406  0.11002828     0.36300
H479        H  0.71699318  0.43098765  0.09980157     0.16700
O480        O  0.66405118  0.39932504  0.10962633    -0.60200
H481        H  0.73505656  0.31370551  0.11745945     0.16700
O482        O  0.78831692  0.34373503  0.10928592    -0.60300
H483        H  0.78316536  0.33614547  0.08340122     0.43700
H484        H  0.66682262  0.42252617  0.11682275     0.43700
C485        C  0.57624154  0.13488141  0.32260395    -0.05400
C486        C  0.57320678  0.10842730  0.34354384    -0.32800
C487        C  0.57843063  0.07695779  0.33224242     0.36400
C488        C  0.58656452  0.07181314  0.29955886    -0.05800
C489        C  0.58348572  0.09762261  0.27562303    -0.32700
C490        C  0.57799770  0.12908708  0.28682052     0.36300
H491        H  0.57196386  0.11230536  0.37103664     0.16700
O492        O  0.57943429  0.05176654  0.35537454    -0.60200
H493        H  0.58921348  0.09402789  0.25023659     0.16700
O494        O  0.58099145  0.15454097  0.26561604    -0.60300
H495        H  0.55663176  0.16049561  0.25101177     0.43700
H496        H  0.55703888  0.04014575  0.34392644     0.43700
C497        C  0.64290854  0.32779840  0.40341604    -0.05400
C498        C  0.61559397  0.34717171  0.38153301    -0.32800
C499        C  0.62239645  0.37696538  0.36883887     0.36400
C500        C  0.65711885  0.38765070  0.37727866    -0.05800
C501        C  0.68448474  0.36914582  0.40042818    -0.32700
C502        C  0.67757132  0.33943586  0.41387817     0.36300
H503        H  0.58892943  0.33840924  0.37266481     0.16700
O504        O  0.59512289  0.39413530  0.34532245    -0.60200
H505        H  0.71123376  0.37732836  0.40737139     0.16700
O506        O  0.70492868  0.32124704  0.43559235    -0.60300
H507        H  0.71975114  0.31633135  0.42020393     0.43700
H508        H  0.58394503  0.40545816  0.36142550     0.43700
C509        C  0.63259560  0.25060522  0.27639379    -0.05400
C510        C  0.62407565  0.23543374  0.24166933    -0.32800
C511        C  0.62898751  0.25154526  0.21180172     0.36400
C512        C  0.64146635  0.28381455  0.21629114    -0.05800
C513        C  0.65169098  0.29744189  0.25232964    -0.32700
C514        C  0.64601406  0.28190209  0.28144616     0.36300
H515        H  0.61551356  0.21047623  0.23825945     0.16700
O516        O  0.62491478  0.23421165  0.18005918    -0.60200
H517        H  0.66617241  0.31983665  0.25893170     0.16700
O518        O  0.65633897  0.29657793  0.31568589    -0.60300
H519        H  0.63578757  0.30936204  0.31642864     0.43700
H520        H  0.64846641  0.22548265  0.18270688     0.43700
C521        C  0.60222025  0.26551712  0.05301833    -0.05400
C522        C  0.58672562  0.28198369  0.01996782    -0.32800
C523        C  0.58056784  0.26550389  0.48559078     0.36400
C524        C  0.59364799  0.23386847  0.48471682    -0.05800
C525        C  0.60547795  0.21699137  0.01794039    -0.32700
C526        C  0.60941563  0.23223748  0.05185032     0.36300
H527        H  0.58123379  0.30762804  0.02073449     0.16700
O528        O  0.56888016  0.28350290  0.45411475    -0.60200
H529        H  0.61494039  0.19241381  0.01775013     0.16700
O530        O  0.62440847  0.21550850  0.08385202    -0.60300
H531        H  0.64998158  0.21848400  0.09008729     0.43700
H532        H  0.54303998  0.28203657  0.44596760     0.43700
C533        C  0.75662633  0.25439816  0.40255445    -0.05400
C534        C  0.74860959  0.27232739  0.37016824    -0.32800
C535        C  0.77212707  0.27307247  0.35083807     0.36400
C536        C  0.80411941  0.25662993  0.36492341    -0.05800
C537        C  0.81445568  0.24372711  0.40045121    -0.32700
C538        C  0.79037006  0.24183188  0.41906018     0.36300
H539        H  0.72236232  0.28155462  0.35713385     0.16700
O540        O  0.76139488  0.28492068  0.31564285    -0.60200
H541        H  0.83898123  0.23066047  0.41111925     0.16700
O542        O  0.79834959  0.22409538  0.45071736    -0.60300
H543        H  0.79347713  0.20126652  0.44228818     0.43700
H544        H  0.76554060  0.30855715  0.31872133     0.43700
C545        C  0.73157334  0.14436481  0.44006386    -0.05400
C546        C  0.76211087  0.13903218  0.47066200    -0.32800
C547        C  0.78987769  0.11957965  0.46693272     0.36400
C548        C  0.78738646  0.10665054  0.43189054    -0.05800
C549        C  0.75810433  0.11508078  0.40154217    -0.32700
C550        C  0.73029748  0.13200294  0.40526057     0.36300
H551        H  0.76429922  0.14960024  0.49730681     0.16700
O552        O  0.81952421  0.11520043  0.49673928    -0.60200
H553        H  0.75576154  0.10685519  0.37385120     0.16700
O554        O  0.70184577  0.13631239  0.37392662    -0.60300
H555        H  0.70918458  0.15234813  0.35905081     0.43700
H556        H  0.81182962  0.10414168  0.51541825     0.43700
C557        C  0.86651113  0.49309895  0.29412391    -0.05400
C558        C  0.83748285  0.01308719  0.28805488    -0.32800
C559        C  0.83042161  0.02875144  0.31657865     0.36400
C560        C  0.85315304  0.02549325  0.35350004    -0.05800
C561        C  0.88380570  0.00669814  0.36002438    -0.32700
C562        C  0.89063672  0.49055609  0.33025248     0.36300
H563        H  0.81898546  0.01569090  0.26051812     0.16700
O564        O  0.79988975  0.04632830  0.30811861    -0.60200
H565        H  0.90226019  0.00447786  0.38762824     0.16700
O566        O  0.91945017  0.47094135  0.33717069    -0.60300
H567        H  0.93724061  0.48426926  0.33165630     0.43700
H568        H  0.80361330  0.06582959  0.29532017     0.43700
C569        C  0.89557146  0.97526147  0.08029770    -0.05400
C570        C  0.91258534  0.50513096  0.08209176    -0.32800
C571        C  0.90917318  0.52202176  0.04973295     0.36400
C572        C  0.88928378  0.00867479  0.01494618    -0.05800
C573        C  0.87662775  0.97706089  0.01297877    -0.32700
C574        C  0.87942310  0.96039065  0.04537642     0.36300
H575        H  0.92489447  0.51714662  0.10847922     0.16700
O576        O  0.92178889  0.55241990  0.55220971    -0.60200
H577        H  0.86177133  0.96650481  0.98644226     0.16700
O578        O  0.86398240  0.93061571  0.04272578    -0.60300
H579        H  0.83843114  0.93485406  0.03406185     0.43700
H580        H  0.94392757  0.55032001  0.54669319     0.43700
C581        C  0.81200705  0.08393672  0.92094301     0.30100
C582        C  0.84273486  0.04460912  0.88257516     0.30100
C583        C  0.82525169  0.10048018  0.89252246    -0.06100
C584        C  0.84621171  0.06683426  0.94516270    -0.06900
C585        C  0.79034871  0.05443308  0.90063852    -0.06800
C586        C  0.84061527  0.08070262  0.87342462    -0.06100
C587        C  0.86221819  0.04599730  0.92500023    -0.06900
C588        C  0.80576893  0.03499383  0.88127916    -0.06800
C589        C  0.85468213  0.10033005  0.85310493    -0.32200
N590        N  0.84856831  0.13178697  0.85969697     0.14300
C591        C  0.83048969  0.13213795  0.88383867    -0.32200
H592        H  0.82082324  0.15378101  0.89349374     0.16300
C593        C  0.88003466  0.02242330  0.94940264    -0.31100
N594        N  0.87761781  0.02898214  0.98311930     0.13100
C595        C  0.85602264  0.05470307  0.98038592    -0.31100
C596        C  0.78248057  0.01036248  0.86548335    -0.31400
N597        N  0.75274482  0.01455456  0.87416455     0.13600
H598        H  0.78641696  0.49137507  0.84771672     0.16200
C599        C  0.75747282  0.04137481  0.89614951    -0.31400
H600        H  0.73809139  0.05129385  0.90704618     0.16200
H601        H  0.84490978  0.06127507  0.00141617     0.16200
H602        H  0.86786564  0.09223253  0.83424166     0.16300
H603        H  0.89099433  0.00031894  0.94244418     0.16200
Fe604      Fe  0.67025041  0.19029258  0.87254184     1.65800
Fe605      Fe  0.60013176  0.23176936  0.87167322     1.73200
Fe606      Fe  0.67536392  0.23460970  0.94628137     1.54400
O607        O  0.70836749  0.19296025  0.96048646    -0.81600
O608        O  0.61584170  0.27906881  0.87925664    -0.79900
O609        O  0.67435700  0.16267658  0.91724936    -0.84100
O610        O  0.71877407  0.21222679  0.89630112    -0.79000
O611        O  0.63844424  0.21413492  0.96432616    -0.80700
O612        O  0.60671823  0.23400024  0.81987295    -0.83500
C613        C  0.72753377  0.24036796  0.90991361     0.97300
C614        C  0.70307381  0.16641895  0.94243479     1.04700
O615        O  0.64846975  0.22007095  0.89594408    -1.12500
O616        O  0.58210421  0.18397343  0.86062839    -0.74900
O617        O  0.62634849  0.16561118  0.84417224    -0.78400
O618        O  0.71135427  0.25563233  0.92788907    -0.79100
C619        C  0.59536258  0.16340895  0.84399660     0.96200
O620        O  0.66219848  0.21927086  0.82806493    -0.77000
O621        O  0.59016150  0.23309112  0.92183699    -0.82200
C622        C  0.63542012  0.29384753  0.90781272     0.98800
C623        C  0.60740869  0.22509292  0.95498536     1.04700
O624        O  0.65016116  0.27952898  0.93824818    -0.77900
C625        C  0.63349959  0.23259537  0.80945444     1.03000
C626        C  0.68582857  0.33650622  0.64880854     0.30100
C627        C  0.65329969  0.30119830  0.68795894     0.30100
C628        C  0.66728312  0.35661054  0.67183880    -0.06100
C629        C  0.65628909  0.31381011  0.62615141    -0.06900
C630        C  0.70976033  0.31297089  0.67791806    -0.06800
C631        C  0.64959023  0.33826990  0.68987769    -0.06100
C632        C  0.63941518  0.29561907  0.64572477    -0.06900
C633        C  0.69267371  0.29543047  0.69727202    -0.06800
C634        C  0.63343243  0.35919098  0.70751741    -0.32200
N635        N  0.64266062  0.38985698  0.70369583     0.14300
C636        C  0.66404785  0.38863197  0.68274765    -0.32200
H637        H  0.67871313  0.40907179  0.67868769     0.16300
C638        C  0.61455642  0.27714005  0.61971363    -0.31100
N639        N  0.61679823  0.28304774  0.58591566     0.13100
C640        C  0.64192227  0.30551359  0.58955376    -0.31100
C641        C  0.71346892  0.26922333  0.71240125    -0.31400
N642        N  0.74336569  0.27024696  0.70411906     0.13600
H643        H  0.70643276  0.24974296  0.72702459     0.16200
C644        C  0.74186197  0.29710873  0.68374208    -0.31400
H645        H  0.76264101  0.30396722  0.67371404     0.16200
H646        H  0.65033635  0.31392088  0.56734182     0.16200
H647        H  0.61813116  0.35252482  0.72456613     0.16300
H648        H  0.59628986  0.26038790  0.62443482     0.16200
Fe649      Fe  0.82343780  0.43393007  0.69693299     1.65800
Fe650      Fe  0.89675391  0.47089502  0.69729344     1.73200
Fe651      Fe  0.82040539  0.97983595  0.62637601     1.54400
O652        O  0.78434692  0.44151054  0.61012822    -0.81600
O653        O  0.88341759  0.01904747  0.69486489    -0.79900
O654        O  0.80833406  0.40413504  0.65145317    -0.84100
O655        O  0.77752356  0.46115081  0.67817111    -0.79000
O656        O  0.85316242  0.45679243  0.60398456    -0.80700
O657        O  0.89440331  0.47285461  0.75144498    -0.83500
C658        C  0.77010410  0.48949093  0.66509126     0.97300
C659        C  0.78458722  0.41308190  0.62249396     1.04700
O660        O  0.84723329  0.46126867  0.67367434    -1.12500
O661        O  0.91146866  0.42193636  0.70436076    -0.74900
O662        O  0.86602695  0.40496469  0.71959506    -0.78400
O663        O  0.78780637  0.00376227  0.64850156    -0.79100
C664        C  0.89698078  0.40153904  0.71931606     0.96200
O665        O  0.83830146  0.46238115  0.74271907    -0.77000
O666        O  0.90386801  0.47277917  0.64495472    -0.82200
C667        C  0.86334776  0.03500743  0.66807767     0.98800
C668        C  0.88456706  0.46586642  0.61170735     1.04700
O669        O  0.85022998  0.02196886  0.63632553    -0.77900
C670        C  0.86766275  0.47411860  0.76185593     1.03000
Fe671      Fe  0.63951982  0.48744452  0.84013514     1.65800
Fe672      Fe  0.68691635  0.44483840  0.79792798     1.73200
Fe673      Fe  0.61281277  0.48194390  0.74739292     1.54400
O674        O  0.57600285  0.45578466  0.75986647    -0.81600
O675        O  0.69272949  0.47109989  0.75428763    -0.79900
O676        O  0.58514115  0.47615659  0.81681826    -0.84100
O677        O  0.63102959  0.03319764  0.82200430    -0.79000
O678        O  0.62579923  0.44196092  0.71849287    -0.80700
O679        O  0.72131844  0.47616063  0.83235047    -0.83500
C680        C  0.60465397  0.04153680  0.79534536     0.97300
C681        C  0.56527759  0.46259212  0.78669680     1.04700
O682        O  0.64669061  0.47141335  0.79559610    -1.12500
O683        O  0.68344996  0.41641586  0.84107572    -0.74900
O684        O  0.64599661  0.44263640  0.86280720    -0.78400
O685        O  0.59335525  0.02411870  0.76618593    -0.79100
C686        C  0.66338558  0.41771398  0.86043553     0.96200
O687        O  0.69309196  0.50132815  0.86563945    -0.77000
O688        O  0.65706064  0.41047891  0.76323212    -0.82200
C689        C  0.67841426  0.49597461  0.73563696     0.98800
C690        C  0.64158723  0.41528915  0.72940215     1.04700
O691        O  0.64987621  0.00824941  0.73592599    -0.77900
C692        C  0.72075962  0.49643690  0.85705910     1.03000
Fe693      Fe  0.84911976  0.22926426  0.72723294     1.65800
Fe694      Fe  0.80191765  0.19250281  0.77177383     1.73200
Fe695      Fe  0.88077304  0.22346554  0.82022714     1.54400
O696        O  0.91495113  0.19586725  0.80360952    -0.81600
O697        O  0.80082703  0.21860303  0.81796560    -0.79900
O698        O  0.90228761  0.21602278  0.74683497    -0.84100
O699        O  0.86007335  0.27480662  0.74756355    -0.79000
O700        O  0.86788408  0.18309044  0.84740374    -0.80700
O701        O  0.77024568  0.22789603  0.74184181    -0.83500
C702        C  0.88799939  0.28240184  0.77276656     0.97300
C703        C  0.92334743  0.20219325  0.77540250     1.04700
O704        O  0.84389015  0.21491547  0.77289587    -1.12500
O705        O  0.80040196  0.16348712  0.72631317    -0.74900
O706        O  0.83971821  0.18370787  0.70381100    -0.78400
O707        O  0.90034359  0.26515468  0.80155170    -0.79100
C708        C  0.82100279  0.16061820  0.70763712     0.96200
O709        O  0.79712326  0.24653133  0.70463302    -0.77000
O710        O  0.82927418  0.15552438  0.80260587    -0.82800
C711        C  0.81778948  0.24217158  0.83755819     0.98800
C712        C  0.84916859  0.15789385  0.83556660     1.04700
O713        O  0.84741741  0.25150890  0.83741955    -0.77900
C714        C  0.77157857  0.24703302  0.71707416     1.03000
C715        C  0.17572228  0.09657306  0.62769679     0.30100
C716        C  0.14548970  0.06004664  0.66798604     0.30100
C717        C  0.16304475  0.11547759  0.65641622    -0.06100
C718        C  0.14191670  0.07809248  0.60549055    -0.06900
C719        C  0.19903772  0.06903662  0.65115972    -0.06800
C720        C  0.14723496  0.09651693  0.67568982    -0.06100
C721        C  0.12636615  0.05901559  0.62602688    -0.06900
C722        C  0.18252772  0.05032903  0.66971433    -0.06800
C723        C  0.13389108  0.11642880  0.69682233    -0.32200
N724        N  0.14124330  0.14741419  0.69179907     0.14300
C725        C  0.15997006  0.14724062  0.66815551    -0.32200
H726        H  0.17164504  0.16859964  0.66138685     0.16300
C727        C  0.10485959  0.03717412  0.60136609    -0.31100
N728        N  0.10516858  0.04375705  0.56694517     0.13100
C729        C  0.12804851  0.06815746  0.56936712    -0.31100
C730        C  0.20439246  0.02525274  0.68583888    -0.31400
N731        N  0.23513543  0.02842723  0.67970414     0.13600
H732        H  0.19862480  0.50597347  0.70164387     0.16200
C733        C  0.23268633  0.05543180  0.65916992    -0.31400
H734        H  0.25434957  0.06479654  0.65208274     0.16200
H735        H  0.13687737  0.07558987  0.54707053     0.16200
H736        H  0.12070092  0.10880645  0.71556808     0.16300
H737        H  0.09241004  0.01631741  0.60813182     0.16200
Fe738      Fe  0.31510297  0.20213875  0.69234208     1.65800
Fe739      Fe  0.38963336  0.23558947  0.69078012     1.73200
Fe740      Fe  0.31446837  0.24373902  0.61826360     1.54400
O741        O  0.27818224  0.20595173  0.60249810    -0.81600
O742        O  0.37729874  0.28379439  0.68753669    -0.79900
O743        O  0.29702318  0.17080002  0.64794501    -0.84100
O744        O  0.27087758  0.23112057  0.67295469    -0.79000
O745        O  0.34844762  0.21864919  0.59874600    -0.80700
O746        O  0.38760909  0.23813653  0.74493324    -0.83500
C747        C  0.26317187  0.25776087  0.65577794     0.97300
C748        C  0.27607113  0.17879486  0.61663318     1.04700
O749        O  0.33977143  0.22687857  0.66729889    -1.12500
O750        O  0.40211747  0.18648250  0.69745191    -0.74900
O751        O  0.35702374  0.17177899  0.71494321    -0.78400
O752        O  0.28022259  0.26932163  0.63674793    -0.79100
C753        C  0.38739590  0.16696702  0.71311576     0.96200
O754        O  0.33156251  0.23113638  0.73869722    -0.77000
O755        O  0.39785265  0.23710250  0.63916406    -0.82200
C756        C  0.35717588  0.29864914  0.65984600     0.98800
C757        C  0.37918356  0.22937604  0.60607903     1.04700
O758        O  0.34550235  0.28493688  0.62834036    -0.77900
C759        C  0.36239369  0.23950602  0.75778718     1.03000
C760        C  0.30465062  0.34813646  0.91204905     0.30100
C761        C  0.33805998  0.30933738  0.87489659     0.30100
C762        C  0.32232534  0.36612020  0.88741828    -0.06100
C763        C  0.33471609  0.32694678  0.93594794    -0.06900
C764        C  0.28126873  0.32301572  0.88433475    -0.06800
C765        C  0.33903181  0.34624762  0.86848706    -0.06100
C766        C  0.35144585  0.30707518  0.91723360    -0.06900
C767        C  0.29835203  0.30380855  0.86551108    -0.06800
C768        C  0.34726864  0.36573677  0.84346241    -0.32200
N769        N  0.33869448  0.39681471  0.84817318     0.14300
C770        C  0.32219506  0.39723074  0.87373189    -0.32200
H771        H  0.30840708  0.41812787  0.87924624     0.16300
C772        C  0.37231473  0.28584511  0.94275295    -0.31100
N773        N  0.36938658  0.29289289  0.97627961     0.13100
C774        C  0.34639858  0.31780475  0.97231368    -0.31100
C775        C  0.27431910  0.28162453  0.84476401    -0.31400
N776        N  0.24382028  0.28518739  0.85171278     0.13600
H777        H  0.27872266  0.26345160  0.82627561     0.16200
C778        C  0.24711580  0.31124863  0.87452959    -0.31400
H779        H  0.22615913  0.32048247  0.88334592     0.16200
H780        H  0.33662738  0.32669396  0.99368538     0.16200
H781        H  0.35601119  0.35791724  0.82102795     0.16300
H782        H  0.38673790  0.26550779  0.93696886     0.16200
Fe783      Fe  0.17011861  0.45340247  0.85787353     1.65800
Fe784      Fe  0.09463356  0.48943383  0.85427197     1.73200
Fe785      Fe  0.16874484  0.99954431  0.92872252     1.54400
O786        O  0.20495717  0.46066752  0.94595731    -0.81600
O787        O  0.10647200  0.03804589  0.85845202    -0.79900
O788        O  0.18404740  0.42348194  0.90238799    -0.84100
O789        O  0.21537574  0.48169220  0.87894571    -0.79000
O790        O  0.13383574  0.47654821  0.94825713    -0.80700
O791        O  0.09969745  0.49061822  0.80117333    -0.83500
C792        C  0.22096613  0.51042401  0.89234929     0.97300
C793        C  0.20603471  0.43225030  0.93282075     1.04700
O794        O  0.14411802  0.48048711  0.88017419    -1.12500
O795        O  0.08134380  0.44061662  0.84630535    -0.74900
O796        O  0.12826903  0.42385945  0.83290485    -0.78400
O797        O  0.20312224  0.02355783  0.90984500    -0.79100
C798        C  0.09684767  0.42036666  0.83163237     0.96200
O799        O  0.15648093  0.48119413  0.81240161    -0.77000
O800        O  0.08430475  0.49146227  0.90461214    -0.82200
C801        C  0.12593951  0.05431153  0.88577769     0.98800
C802        C  0.10177892  0.48463468  0.93815755     1.04700
O803        O  0.13844781  0.04186134  0.91760364    -0.77900
C804        C  0.12702233  0.49151745  0.79176186     1.03000
Fe805      Fe  0.13683392  0.24549027  0.82666327     1.65800
Fe806      Fe  0.18472997  0.20851512  0.78117119     1.73200
Fe807      Fe  0.10523346  0.23750508  0.73336942     1.54400
O808        O  0.07312055  0.20881185  0.75047137    -0.81600
O809        O  0.18500749  0.23509288  0.73554303    -0.79900
O810        O  0.08454829  0.22920874  0.80777472    -0.84100
O811        O  0.12260421  0.29020129  0.80673371    -0.79000
O812        O  0.11988548  0.19792947  0.70524109    -0.80700
O813        O  0.21585794  0.24379845  0.81224402    -0.83500
C814        C  0.09581078  0.29728212  0.77996904     0.97300
C815        C  0.06479525  0.21374831  0.77924298     1.04700
O816        O  0.14244039  0.23060355  0.78068018    -1.12500
O817        O  0.18666631  0.17960655  0.82584803    -0.74900
O818        O  0.14942113  0.20130769  0.85106399    -0.78400
O819        O  0.08408335  0.27879043  0.75172664    -0.79100
C820        C  0.16797767  0.17794738  0.84664822     0.96200
O821        O  0.18809897  0.26480245  0.84829609    -0.77000
O822        O  0.15844495  0.17099211  0.74973161    -0.82200
C823        C  0.16707041  0.25824531  0.71637353     0.98800
C824        C  0.13956789  0.17334065  0.71650935     1.04700
O825        O  0.13687509  0.26642389  0.71622850    -0.77900
C826        C  0.21431799  0.26373488  0.83686684     1.03000
Fe827      Fe  0.34377333  0.48998829  0.71265866     1.65800
Fe828      Fe  0.29305953  0.45703123  0.75676339     1.73200
Fe829      Fe  0.37242362  0.48602564  0.80604715     1.54400
O830        O  0.40598576  0.45658857  0.79096973    -0.81600
O831        O  0.29106585  0.48576877  0.80109038    -0.79900
O832        O  0.39726444  0.47579937  0.73453897    -0.84100
O833        O  0.35563349  0.03546381  0.73116545    -0.79000
O834        O  0.35811407  0.44701605  0.83364101    -0.80700
O835        O  0.26346352  0.49144182  0.72360666    -0.83500
C836        C  0.38205046  0.04357428  0.75803830     0.97300
C837        C  0.41688353  0.46249874  0.76440176     1.04700
O838        O  0.33626071  0.47755345  0.75826251    -1.12500
O839        O  0.29217720  0.42659095  0.71283965    -0.74900
O840        O  0.33254203  0.44467295  0.69020799    -0.78400
O841        O  0.39320406  0.02657720  0.78713810    -0.79100
C842        C  0.31195757  0.42299533  0.69332410     0.96200
O843        O  0.29211072  0.50777750  0.68700892    -0.77000
O844        O  0.31737163  0.41991661  0.79034526    -0.82200
C845        C  0.30916591  0.50867983  0.82104056     0.98800
C846        C  0.33817044  0.42246616  0.82298848     1.04700
O847        O  0.33984261  0.51572113  0.82226285    -0.77900
C848        C  0.26520726  0.50837258  0.69726402     1.03000
C849        C  0.07922694  0.39155161  0.81096157    -0.05400
C850        C  0.07128201  0.36582784  0.82994216    -0.32800
C851        C  0.07081590  0.33412780  0.81629349     0.36400
C852        C  0.07879647  0.32811418  0.78364722    -0.05800
C853        C  0.08117982  0.35414569  0.76191275    -0.32700
C854        C  0.08144998  0.38585086  0.77543855     0.36300
H855        H  0.06968313  0.36977525  0.85727888     0.16700
O856        O  0.06744063  0.30891338  0.83763570    -0.60200
H857        H  0.08723502  0.34991844  0.73680246     0.16700
O858        O  0.08784563  0.41099453  0.75567928    -0.60300
H859        H  0.11326822  0.41002145  0.75957715     0.43700
H860        H  0.04439937  0.29915029  0.82404573     0.43700
C861        C  0.13790159  0.08656601  0.87824928    -0.05400
C862        C  0.14346138  0.11286524  0.90315563    -0.32800
C863        C  0.15515275  0.14282680  0.89455041     0.36400
C864        C  0.16323072  0.14614573  0.86166856    -0.05800
C865        C  0.15933295  0.11926986  0.83809855    -0.32700
C866        C  0.14619654  0.09024772  0.84566282     0.36300
H867        H  0.13764968  0.11053413  0.92853451     0.16700
O868        O  0.15765785  0.16884362  0.91785554    -0.60200
H869        H  0.16429886  0.12129287  0.81219082     0.16700
O870        O  0.14112723  0.06554150  0.82035263    -0.60300
H871        H  0.15722211  0.04815042  0.83342207     0.43700
H872        H  0.18200061  0.16829313  0.93525388     0.43700
C873        C  0.29418678  0.52589667  0.84549334    -0.05400
C874        C  0.30636032  0.51838382  0.88304598    -0.32800
C875        C  0.28359025  0.52076728  0.90331239     0.36400
C876        C  0.24847352  0.52901348  0.88511793    -0.05800
C877        C  0.23996018  0.04406134  0.85105673    -0.32700
C878        C  0.26261903  0.04202026  0.83069555     0.36300
H879        H  0.33177181  0.50718100  0.89536002     0.16700
O880        O  0.29478093  0.51163894  0.93945253    -0.60200
H881        H  0.21393748  0.05340635  0.83813333     0.16700
O882        O  0.25155545  0.05173519  0.79470747    -0.60300
H883        H  0.26326818  0.07274968  0.79508686     0.43700
H884        H  0.29450208  0.53169855  0.95383999     0.43700
C885        C  0.23689143  0.41088816  0.94804947    -0.05400
C886        C  0.23263550  0.37727809  0.94873863    -0.32800
C887        C  0.25854285  0.35619307  0.94467918     0.36400
C888        C  0.28599262  0.36865655  0.93384356    -0.05800
C889        C  0.29381780  0.40158289  0.94159123    -0.32700
C890        C  0.26974546  0.42248176  0.94945442     0.36300
H891        H  0.20852687  0.36743402  0.95029565     0.16700
O892        O  0.25581805  0.32367126  0.94951047    -0.60200
H893        H  0.31784553  0.41151556  0.94013281     0.16700
O894        O  0.27671704  0.45479982  0.95363331    -0.60300
H895        H  0.28610350  0.45864054  0.98070751     0.43700
H896        H  0.26783474  0.32019950  0.97624869     0.43700
C897        C  0.39951594  0.07354613  0.75334356    -0.05400
C898        C  0.40364405  0.09931964  0.77840422    -0.32800
C899        C  0.40629136  0.13097951  0.76710507     0.36400
C900        C  0.40438053  0.13690293  0.73032902    -0.05800
C901        C  0.40601266  0.11076274  0.70744901    -0.32700
C902        C  0.40383800  0.07911409  0.71886497     0.36300
H903        H  0.40071828  0.09543546  0.80503197     0.16700
O904        O  0.40539900  0.15626147  0.79034365    -0.60200
H905        H  0.40446940  0.11486978  0.67916296     0.16700
O906        O  0.40138426  0.05407406  0.69423792    -0.60300
H907        H  0.42352985  0.04174498  0.70433297     0.43700
H908        H  0.42928887  0.16547566  0.79851928     0.43700
C909        C  0.34378261  0.33071782  0.66601424    -0.05400
C910        C  0.33633033  0.35495661  0.63924843    -0.32800
C911        C  0.32325695  0.38516105  0.64609099     0.36400
C912        C  0.31585782  0.39051199  0.67910074    -0.05800
C913        C  0.32074200  0.36535456  0.70412542    -0.32700
C914        C  0.33569952  0.33620100  0.69852813     0.36300
H915        H  0.34180111  0.35089549  0.61378881     0.16700
O916        O  0.31885220  0.40950569  0.62110318    -0.60200
H917        H  0.31575252  0.36914400  0.72991732     0.16700
O918        O  0.34191362  0.31284860  0.72493775    -0.60300
H919        H  0.35722284  0.32317804  0.74806665     0.43700
H920        H  0.29615125  0.40496735  0.60161726     0.43700
C921        C  0.35615428  0.28648695  0.85453098    -0.05400
C922        C  0.38017588  0.29797684  0.83829279    -0.32800
C923        C  0.38620709  0.28089987  0.80904968     0.36400
C924        C  0.36797297  0.25203208  0.79578854    -0.05800
C925        C  0.35104494  0.23711093  0.81771425    -0.32700
C926        C  0.34700121  0.25347871  0.84852206     0.36300
H927        H  0.39386112  0.32043557  0.84761378     0.16700
O928        O  0.40757063  0.29392196  0.79186542    -0.60200
H929        H  0.33996207  0.21321138  0.81016885     0.16700
O930        O  0.33375544  0.23776389  0.87230607    -0.60300
H931        H  0.31627755  0.22182922  0.85762264     0.43700
H932        H  0.43167399  0.28857265  0.80785945     0.43700
C933        C  0.38938574  0.24014799  0.57450420    -0.05400
C934        C  0.40258478  0.27167985  0.57609069    -0.32800
C935        C  0.39869128  0.28861534  0.54365900     0.36400
C936        C  0.38231854  0.27383313  0.50900069    -0.05800
C937        C  0.37339084  0.24099498  0.50740771    -0.32700
C938        C  0.37643279  0.22423302  0.53985951     0.36300
H939        H  0.41233449  0.28457696  0.60228768     0.16700
O940        O  0.40825576  0.32051055  0.54602772    -0.60200
H941        H  0.36107714  0.22922567  0.48088792     0.16700
O942        O  0.36464095  0.19298650  0.53738425    -0.60300
H943        H  0.33876939  0.19463318  0.52859933     0.43700
H944        H  0.43175811  0.32044035  0.54341219     0.43700
C945        C  0.18203987  0.27459157  0.69211422    -0.05400
C946        C  0.21244477  0.29246338  0.70863967    -0.32800
C947        C  0.23829716  0.29284534  0.69229054     0.36400
C948        C  0.23328249  0.27524783  0.65939161    -0.05800
C949        C  0.20010383  0.26316893  0.63943145    -0.32700
C950        C  0.17418192  0.26279505  0.65578632     0.36300
H951        H  0.21839680  0.30182133  0.73657837     0.16700
O952        O  0.27034227  0.30562365  0.71160885    -0.60200
H953        H  0.19602940  0.24972914  0.61391960     0.16700
O954        O  0.14413146  0.24560958  0.63910857    -0.60300
H955        H  0.12670781  0.26191157  0.62552991     0.43700
H956        H  0.28203307  0.28931048  0.73045615     0.43700
C957        C  0.24554132  0.15778478  0.59962990    -0.05400
C958        C  0.21211110  0.17012693  0.59560988    -0.32800
C959        C  0.18552399  0.14933534  0.59731309     0.36400
C960        C  0.19311039  0.11628120  0.60482583    -0.05800
C961        C  0.22236118  0.10371960  0.59713038    -0.32700
C962        C  0.24957664  0.12420795  0.59687512     0.36300
H963        H  0.20768014  0.19599020  0.59511332     0.16700
O964        O  0.15315347  0.16183756  0.59361015    -0.60200
H965        H  0.22564969  0.07793067  0.59471544     0.16700
O966        O  0.28096329  0.11119682  0.59751267    -0.60300
H967        H  0.27951230  0.10971619  0.57126593     0.43700
H968        H  0.13732249  0.15284828  0.56989595     0.43700
C969        C  0.13573645  0.04273515  0.69805505    -0.05400
C970        C  0.10545905  0.52351003  0.69286937    -0.32800
C971        C  0.10052699  0.50749115  0.72321755     0.36400
C972        C  0.12721092  0.50834691  0.75808380    -0.05800
C973        C  0.15670885  0.02737297  0.76231194    -0.32700
C974        C  0.15986817  0.04592806  0.73432539     0.36300
H975        H  0.08556643  0.52177350  0.66596676     0.16700
O976        O  0.07073224  0.48997219  0.71807223    -0.60200
H977        H  0.17787766  0.02816294  0.78828070     0.16700
O978        O  0.18830074  0.06604153  0.74232345    -0.60300
H979        H  0.18379193  0.08389934  0.75772737     0.43700
H980        H  0.05422638  0.50532094  0.72371510     0.43700
C981        C  0.09126388  0.02387635  0.53443947    -0.05400
C982        C  0.10123615  0.49106827  0.53460070    -0.32800
C983        C  0.09981908  0.47521169  0.50156042     0.36400
C984        C  0.08735578  0.99291755  0.96779158    -0.05800
C985        C  0.07188895  0.02357354  0.96684079    -0.32700
C986        C  0.07397705  0.03842668  0.50031794     0.36300
H987        H  0.11384122  0.47919124  0.56063145     0.16700
O988        O  0.11199690  0.44496458  0.00270938    -0.60200
H989        H  0.06272267  0.03681605  0.94124932     0.16700
O990        O  0.06305771  0.07001057  0.49900368    -0.60300
H991        H  0.04178542  0.06962063  0.50623752     0.43700
H992        H  0.13874417  0.44665233  0.51335616     0.43700
C993        C  0.95993226  0.19663395  0.77701623    -0.05400
C994        C  0.96761792  0.19620554  0.74407758    -0.32800
C995        C  0.00193846  0.19961605  0.74443431     0.36400
C996        C  0.02962164  0.20335480  0.77833690    -0.05800
C997        C  0.02229680  0.20090149  0.81138926    -0.32700
C998        C  0.98786167  0.19753687  0.81099711     0.36300
H999        H  0.94668600  0.19524114  0.71770418     0.16700
O1000       O  0.00761849  0.20145984  0.71127675    -0.60200
H1001       H  0.04311924  0.20323828  0.83771854     0.16700
O1002       O  0.98177845  0.19738060  0.84403539    -0.60300
H1003       H  0.98084979  0.22049376  0.85100136     0.43700
H1004       H  0.00312460  0.22439702  0.70387227     0.43700
C1005       C  0.52753382  0.45700863  0.78113313    -0.05400
C1006       C  0.51559947  0.45799800  0.81140948    -0.32800
C1007       C  0.47974506  0.45777251  0.80635638     0.36400
C1008       C  0.45466215  0.45673877  0.77031965    -0.05800
C1009       C  0.46656891  0.45418177  0.74012460    -0.32700
C1010       C  0.50244718  0.45413154  0.74518014     0.36300
H1011       H  0.53409092  0.46010814  0.83919894     0.16700
O1012       O  0.46965160  0.46033135  0.83699255    -0.60200
H1013       H  0.44798138  0.45331145  0.71229875     0.16700
O1014       O  0.51247040  0.45271358  0.71445095    -0.60300
H1015       H  0.51119843  0.47534657  0.70587859     0.43700
H1016       H  0.46820035  0.98418779  0.84127828     0.43700
C1017       C  0.91474480  0.37226688  0.73825840    -0.05400
C1018       C  0.91376083  0.34440889  0.71681645    -0.32800
C1019       C  0.90990526  0.31391999  0.73039234     0.36400
C1020       C  0.90636173  0.31106671  0.76561756    -0.05800
C1021       C  0.91289306  0.33817933  0.78914490    -0.32700
C1022       C  0.91729471  0.36871607  0.77566572     0.36300
H1023       H  0.91140154  0.34654092  0.68801148     0.16700
O1024       O  0.90537355  0.28743187  0.70731820    -0.60200
H1025       H  0.91077131  0.33643129  0.81641292     0.16700
O1026       O  0.91959332  0.39562220  0.79775595    -0.60300
H1027       H  0.89531298  0.40041377  0.79680213     0.43700
H1028       H  0.92874876  0.27705843  0.71400583     0.43700
C1029       C  0.85229688  0.06794616  0.67595742    -0.05400
C1030       C  0.85106168  0.07400206  0.71153218    -0.32800
C1031       C  0.83854496  0.10322873  0.72070608     0.36400
C1032       C  0.82754232  0.12800122  0.69460025    -0.05800
C1033       C  0.82901596  0.12243154  0.65890750    -0.32700
C1034       C  0.84034944  0.09225141  0.64915756     0.36300
H1035       H  0.85940671  0.05567513  0.73256939     0.16700
O1036       O  0.83935272  0.10800318  0.75630729    -0.60200
H1037       H  0.82156472  0.14148669  0.63871004     0.16700
O1038       O  0.84107673  0.08732727  0.61405018    -0.60300
H1039       H  0.81651496  0.08282018  0.59868201     0.43700
H1040       H  0.81536700  0.10298243  0.75579129     0.43700
C1041       C  0.74009722  0.50549662  0.67040776    -0.05400
C1042       C  0.70789613  0.48993637  0.65577671    -0.32800
C1043       C  0.68420118  0.49119749  0.67476814     0.36400
C1044       C  0.69348811  0.50749102  0.70896005    -0.05800
C1045       C  0.72287737  0.52750445  0.72033669    -0.32700
C1046       C  0.74571485  0.52750240  0.70002117     0.36300
H1047       H  0.70302723  0.47361445  0.63237709     0.16700
O1048       O  0.65494195  0.47213556  0.66301148    -0.60200
H1049       H  0.72974000  0.54059721  0.74642883     0.16700
O1050       O  0.77577512  0.54534331  0.71227886    -0.60300
H1051       H  0.76862309  0.56759935  0.70357865     0.43700
H1052       H  0.63683483  0.48561700  0.64537057     0.43700
C1053       C  0.75351473  0.39219701  0.60852846    -0.05400
C1054       C  0.72082029  0.40563301  0.60548799    -0.32800
C1055       C  0.69566742  0.38698909  0.61403597     0.36400
C1056       C  0.70374268  0.35469440  0.62537149    -0.05800
C1057       C  0.73094605  0.33970127  0.61593803    -0.32700
C1058       C  0.75711974  0.35839770  0.61007587     0.36300
H1059       H  0.71621913  0.43117134  0.60024229     0.16700
O1060       O  0.66286965  0.39938122  0.60911842    -0.60200
H1061       H  0.73362812  0.31369495  0.61624390     0.16700
O1062       O  0.78755251  0.34382698  0.60990548    -0.60300
H1063       H  0.78564244  0.34236127  0.58352020     0.43700
H1064       H  0.66563987  0.42259168  0.61630554     0.43700
C1065       C  0.57684349  0.13476283  0.82376034    -0.05400
C1066       C  0.57375772  0.10821099  0.84454260    -0.32800
C1067       C  0.57868996  0.07676045  0.83292528     0.36400
C1068       C  0.58671282  0.07172675  0.80016505    -0.05800
C1069       C  0.58381813  0.09769130  0.77646685    -0.32700
C1070       C  0.57855284  0.12912625  0.78793141     0.36300
H1071       H  0.57259503  0.11195617  0.87208549     0.16700
O1072       O  0.57949677  0.05141454  0.85578705    -0.60200
H1073       H  0.58953089  0.09421244  0.75105758     0.16700
O1074       O  0.58172644  0.15466447  0.76692187    -0.60300
H1075       H  0.55749815  0.16239544  0.75450092     0.43700
H1076       H  0.55551101  0.04239240  0.84679917     0.43700
C1077       C  0.64228953  0.32838998  0.90389253    -0.05400
C1078       C  0.61508354  0.34734601  0.88108866    -0.32800
C1079       C  0.62191614  0.37714520  0.86843859     0.36400
C1080       C  0.65656801  0.38825788  0.87787966    -0.05800
C1081       C  0.68374982  0.37029309  0.90212349    -0.32700
C1082       C  0.67678399  0.34056597  0.91551541     0.36300
H1083       H  0.58855256  0.33822434  0.87143939     0.16700
O1084       O  0.59486265  0.39388312  0.84401594    -0.60200
H1085       H  0.71042366  0.37886992  0.90991127     0.16700
O1086       O  0.70399646  0.32284620  0.93826262    -0.60300
H1087       H  0.71950329  0.31786311  0.92364066     0.43700
H1088       H  0.58293200  0.40522954  0.85940125     0.43700
C1089       C  0.63266122  0.25010476  0.77649341    -0.05400
C1090       C  0.62503947  0.23456092  0.74204397    -0.32800
C1091       C  0.62957767  0.25074940  0.71200493     0.36400
C1092       C  0.64091673  0.28337845  0.71605601    -0.05800
C1093       C  0.65064777  0.29726955  0.75195530    -0.32700
C1094       C  0.64503606  0.28176575  0.78114924     0.36300
H1095       H  0.61734179  0.20936200  0.73896048     0.16700
O1096       O  0.62620182  0.23330608  0.68047727    -0.60200
H1097       H  0.66475380  0.31985089  0.75849496     0.16700
O1098       O  0.65458380  0.29682882  0.81516864    -0.60300
H1099       H  0.63497376  0.31170587  0.81410735     0.43700
H1100       H  0.64963874  0.22381170  0.68416770     0.43700
C1101       C  0.60111069  0.26454095  0.55268065    -0.05400
C1102       C  0.58500286  0.28078611  0.51957708    -0.32800
C1103       C  0.58230425  0.26671586  0.98603495     0.36400
C1104       C  0.59447508  0.23472225  0.98515923    -0.05800
C1105       C  0.60516985  0.21622911  0.51757588    -0.32700
C1106       C  0.60889005  0.23138993  0.55151042     0.36300
H1107       H  0.57887866  0.30629456  0.52028450     0.16700
O1108       O  0.57173918  0.28500749  0.95473481    -0.60200
H1109       H  0.61514626  0.19184254  0.51741498     0.16700
O1110       O  0.62414580  0.21475104  0.58352211    -0.60300
H1111       H  0.64969037  0.21767990  0.58946237     0.43700
H1112       H  0.54650046  0.28030280  0.94300674     0.43700
C1113       C  0.75660083  0.25531949  0.90255143    -0.05400
C1114       C  0.74845175  0.27355449  0.87034569    -0.32800
C1115       C  0.77138867  0.27379109  0.85030078     0.36400
C1116       C  0.80307377  0.25670214  0.86364760    -0.05800
C1117       C  0.81368594  0.24347405  0.89900163    -0.32700
C1118       C  0.79010403  0.24198595  0.91822561     0.36300
H1119       H  0.72235395  0.28335129  0.85792993     0.16700
O1120       O  0.76025186  0.28602464  0.81527121    -0.60200
H1121       H  0.83794798  0.22992418  0.90907283     0.16700
O1122       O  0.79815180  0.22380899  0.94957031    -0.60300
H1123       H  0.79303198  0.20110517  0.94075645     0.43700
H1124       H  0.77438869  0.30577227  0.81677519     0.43700
C1125       C  0.73238121  0.14544972  0.94075274    -0.05400
C1126       C  0.76335205  0.14040554  0.97092127    -0.32800
C1127       C  0.79082869  0.12076181  0.96679676     0.36400
C1128       C  0.78754991  0.10727251  0.93177983    -0.05800
C1129       C  0.75790710  0.11549147  0.90176928    -0.32700
C1130       C  0.73041125  0.13264877  0.90590610     0.36300
H1131       H  0.76612018  0.15136979  0.99752814     0.16700
O1132       O  0.82103132  0.11688105  0.99607847    -0.60200
H1133       H  0.75507450  0.10701044  0.87404346     0.16700
O1134       O  0.70156518  0.13674941  0.87492132    -0.60300
H1135       H  0.70860884  0.15253078  0.85955507     0.43700
H1136       H  0.81396903  0.10650028  0.01558900     0.43700
C1137       C  0.86742624  0.49337215  0.79441899    -0.05400
C1138       C  0.83831395  0.01338526  0.78802155    -0.32800
C1139       C  0.83092848  0.02904064  0.81639066     0.36400
C1140       C  0.85347072  0.02594531  0.85340498    -0.05800
C1141       C  0.88423551  0.00724256  0.86017943    -0.32700
C1142       C  0.89111540  0.49054242  0.83073491     0.36300
H1143       H  0.81996416  0.01586905  0.76040157     0.16700
O1144       O  0.80025240  0.04641047  0.80768226    -0.60200
H1145       H  0.90257351  0.00514008  0.88785874     0.16700
O1146       O  0.91975185  0.47067134  0.83788390    -0.60300
H1147       H  0.93934147  0.48513201  0.83861367     0.43700
H1148       H  0.80388623  0.06591923  0.79480175     0.43700
C1149       C  0.89565882  0.97450814  0.58022118    -0.05400
C1150       C  0.91220098  0.50469731  0.58182326    -0.32800
C1151       C  0.90896443  0.52157448  0.54954353     0.36400
C1152       C  0.88976312  0.00802317  0.51510161    -0.05800
C1153       C  0.87753691  0.97622656  0.51297727    -0.32700
C1154       C  0.88002000  0.95953952  0.54528182     0.36300
H1155       H  0.92411753  0.51683992  0.60820990     0.16700
O1156       O  0.92249341  0.55265916  0.05226747    -0.60200
H1157       H  0.86307748  0.96557693  0.48636219     0.16700
O1158       O  0.86472747  0.92968360  0.54247862    -0.60300
H1159       H  0.83915466  0.93380485  0.53360980     0.43700
H1160       H  0.94553626  0.54989234  0.04884037     0.43700
C1161       C  0.81209619  0.58362152  0.42119597     0.30100
C1162       C  0.84274977  0.54437075  0.38268008     0.30100
C1163       C  0.82541466  0.60021207  0.39284059    -0.06100
C1164       C  0.84633091  0.56645297  0.44534374    -0.06900
C1165       C  0.79044262  0.55416082  0.40086849    -0.06800
C1166       C  0.84066685  0.58046655  0.37361633    -0.06100
C1167       C  0.86231088  0.54569153  0.42506865    -0.06900
C1168       C  0.80584528  0.53473578  0.38150958    -0.06800
C1169       C  0.85494479  0.60013243  0.35352164    -0.32200
N1170       N  0.84905009  0.63159047  0.36035586     0.14300
C1171       C  0.83092506  0.63188814  0.38445326    -0.32200
H1172       H  0.82138630  0.65352259  0.39426443     0.16300
C1173       C  0.88030217  0.52213618  0.44936049    -0.31100
N1174       N  0.87797227  0.52859823  0.48312547     0.13100
C1175       C  0.85633020  0.55426953  0.48054568    -0.31100
C1176       C  0.78257249  0.51011502  0.36572363    -0.31400
N1177       N  0.75281712  0.51435185  0.37433920     0.13600
H1178       H  0.78639255  0.99087698  0.34787278     0.16200
C1179       C  0.75753994  0.54115579  0.39633401    -0.31400
H1180       H  0.73813016  0.55112358  0.40715887     0.16200
H1181       H  0.84536663  0.56077509  0.50170525     0.16200
H1182       H  0.86812656  0.59205911  0.33464851     0.16300
H1183       H  0.89131529  0.50010185  0.44230415     0.16200
Fe1184     Fe  0.66958896  0.68990387  0.37145844     1.65800
Fe1185     Fe  0.59947598  0.73137918  0.37086612     1.73200
Fe1186     Fe  0.67456906  0.73379156  0.44551542     1.54400
O1187       O  0.70712240  0.69188292  0.45957148    -0.81600
O1188       O  0.61528725  0.77866457  0.37844833    -0.79900
O1189       O  0.67356411  0.66173005  0.41569540    -0.84100
O1190       O  0.71830085  0.71142599  0.39562512    -0.79000
O1191       O  0.63742034  0.71353744  0.46340770    -0.80700
O1192       O  0.60611791  0.73353102  0.31906187    -0.83500
C1193       C  0.72719866  0.73941871  0.40959454     0.97300
C1194       C  0.70206964  0.66547055  0.44125084     1.04700
O1195       O  0.64778353  0.71949366  0.39512604    -1.12500
O1196       O  0.58154237  0.68358651  0.35981044    -0.74900
O1197       O  0.62550663  0.66564258  0.34257230    -0.78400
O1198       O  0.71094351  0.75459473  0.42754437    -0.79100
C1199       C  0.59463289  0.66326993  0.34273377     0.96200
O1200       O  0.66180320  0.71936734  0.32753027    -0.77000
O1201       O  0.58929370  0.73279754  0.42103838    -0.82200
C1202       C  0.63507224  0.79331296  0.40698864     0.98800
C1203       C  0.60642201  0.72456161  0.45415014     1.04700
O1204       O  0.64974567  0.77892477  0.43741052    -0.77900
C1205       C  0.63301861  0.73247004  0.30882922     1.03000
C1206       C  0.68631011  0.83669179  0.14933187     0.30100
C1207       C  0.65333419  0.80133024  0.18798365     0.30100
C1208       C  0.66772484  0.85674764  0.17234103    -0.06100
C1209       C  0.65667969  0.81420758  0.12641146    -0.06900
C1210       C  0.70998493  0.81296760  0.17834121    -0.06800
C1211       C  0.64983970  0.83838424  0.19015241    -0.06100
C1212       C  0.63954509  0.79603663  0.14574091    -0.06900
C1213       C  0.69269299  0.79537158  0.19741248    -0.06800
C1214       C  0.63356101  0.85925287  0.20769122    -0.32200
N1215       N  0.64276072  0.88992929  0.20386873     0.14300
C1216       C  0.66437211  0.88874483  0.18318346    -0.32200
H1217       H  0.67907135  0.90921010  0.17925401     0.16300
C1218       C  0.61441762  0.77800953  0.11952699    -0.31100
N1219       N  0.61682388  0.78404975  0.08584328     0.13100
C1220       C  0.64225791  0.80624468  0.08973683    -0.31100
C1221       C  0.71353836  0.76928040  0.21287333    -0.31400
N1222       N  0.74366554  0.77047554  0.20503214     0.13600
H1223       H  0.70639868  0.74977402  0.22738967     0.16200
C1224       C  0.74224749  0.79732491  0.18465120    -0.31400
H1225       H  0.76316933  0.80430370  0.17489790     0.16200
H1226       H  0.65081591  0.81468791  0.06763872     0.16200
H1227       H  0.61817738  0.85253975  0.22464141     0.16300
H1228       H  0.59582571  0.76148646  0.12399415     0.16200
Fe1229     Fe  0.82320510  0.93411723  0.19657411     1.65800
Fe1230     Fe  0.89678145  0.97101873  0.19768332     1.73200
Fe1231     Fe  0.82075396  0.48014707  0.12643374     1.54400
O1232       O  0.78460102  0.94181839  0.11011125    -0.81600
O1233       O  0.88352718  0.51913354  0.19547207    -0.79900
O1234       O  0.80894037  0.90433551  0.15111230    -0.84100
O1235       O  0.77713581  0.96113532  0.17720000    -0.79000
O1236       O  0.85355165  0.95707644  0.10453206    -0.80700
O1237       O  0.89380794  0.97273596  0.25154329    -0.83500
C1238       C  0.76999795  0.98968702  0.16467410     0.97300
C1239       C  0.78503512  0.91327617  0.12229706     1.04700
O1240       O  0.84728642  0.96155211  0.17379691    -1.12500
O1241       O  0.91138099  0.92201523  0.20481432    -0.74900
O1242       O  0.86580694  0.90539429  0.21998870    -0.78400
O1243       O  0.78789931  0.50383420  0.14832711    -0.79100
C1244       C  0.89685749  0.90189338  0.22006761     0.96200
O1245       O  0.83746263  0.96264919  0.24215380    -0.77000
O1246       O  0.90422948  0.97315288  0.14543149    -0.82200
C1247       C  0.86357969  0.53526695  0.16876452     0.98800
C1248       C  0.88488030  0.96630137  0.11216480     1.04700
O1249       O  0.85049139  0.52239554  0.13690177    -0.77900
C1250       C  0.86684244  0.97415881  0.26157099     1.03000
Fe1251     Fe  0.63938444  0.98719519  0.33999296     1.65800
Fe1252     Fe  0.68678601  0.94480368  0.29770268     1.73200
Fe1253     Fe  0.61294903  0.98211932  0.24721139     1.54400
O1254       O  0.57605389  0.95590224  0.25939652    -0.81600
O1255       O  0.69259843  0.97098046  0.25394998    -0.79900
O1256       O  0.58509524  0.97591005  0.31649440    -0.84100
O1257       O  0.63108679  0.53304485  0.32179485    -0.79000
O1258       O  0.62599420  0.94215802  0.21834088    -0.80700
O1259       O  0.72122113  0.97607462  0.33205534    -0.83500
C1260       C  0.60474659  0.54136850  0.29507731     0.97300
C1261       C  0.56534677  0.96238431  0.28630464     1.04700
O1262       O  0.64668242  0.97148368  0.29543143    -1.12500
O1263       O  0.68349459  0.91635699  0.34088332    -0.74900
O1264       O  0.64564970  0.94224404  0.36225250    -0.78400
O1265       O  0.59353299  0.52400046  0.26588655    -0.79100
C1266       C  0.66315456  0.91740317  0.35993089     0.96200
O1267       O  0.69303356  0.00087998  0.36566382    -0.77000
O1268       O  0.65659752  0.91056457  0.26326706    -0.82200
C1269       C  0.67847786  0.99600432  0.23547649     0.98800
C1270       C  0.64146473  0.91538461  0.22940693     1.04700
O1271       O  0.65023481  0.50850727  0.23590730    -0.77900
C1272       C  0.72070326  0.99608362  0.35703025     1.03000
Fe1273     Fe  0.84947190  0.72940865  0.22802685     1.65800
Fe1274     Fe  0.80228703  0.69278169  0.27281483     1.73200
Fe1275     Fe  0.88144102  0.72330671  0.32106294     1.54400
O1276       O  0.91522615  0.69568348  0.30388797    -0.81600
O1277       O  0.80150846  0.71888012  0.31909715    -0.79900
O1278       O  0.90259632  0.71598435  0.24719867    -0.84100
O1279       O  0.86095486  0.77495077  0.24823492    -0.79000
O1280       O  0.86867198  0.68279446  0.34813397    -0.80700
O1281       O  0.77062548  0.72825428  0.24297144    -0.83500
C1282       C  0.88867375  0.78253046  0.27377783     0.97300
C1283       C  0.92362833  0.70208769  0.27571425     1.04700
O1284       O  0.84431972  0.71510139  0.27380934    -1.12500
O1285       O  0.80053088  0.66369279  0.22732698    -0.74900
O1286       O  0.83970600  0.68388441  0.20461590    -0.78400
O1287       O  0.90088600  0.76514378  0.30248675    -0.79100
C1288       C  0.82104863  0.66079997  0.20855901     0.96200
O1289       O  0.79752538  0.74688736  0.20577270    -0.77000
O1290       O  0.82943048  0.65565410  0.30348582    -0.82800
C1291       C  0.81872409  0.74220334  0.33894863     0.98800
C1292       C  0.84964813  0.65777724  0.33632100     1.04700
O1293       O  0.84848942  0.75129578  0.33896906    -0.77900
C1294       C  0.77195346  0.74736347  0.21817515     1.03000
C1295       C  0.17547811  0.59654940  0.12719366     0.30100
C1296       C  0.14561007  0.55990630  0.16773221     0.30100
C1297       C  0.16281539  0.61543954  0.15595136    -0.06100
C1298       C  0.14178246  0.57788932  0.10515059    -0.06900
C1299       C  0.19903489  0.56916637  0.15074034    -0.06800
C1300       C  0.14721955  0.59641897  0.17540473    -0.06100
C1301       C  0.12644426  0.55874110  0.12575907    -0.06900
C1302       C  0.18273600  0.55041352  0.16948432    -0.06800
C1303       C  0.13437204  0.61629716  0.19701976    -0.32200
N1304       N  0.14170898  0.64730468  0.19202117     0.14300
C1305       C  0.15998486  0.64718179  0.16793207    -0.32200
H1306       H  0.17153825  0.66854575  0.16100424     0.16300
C1307       C  0.10447928  0.53721305  0.10101605    -0.31100
N1308       N  0.10438875  0.54407583  0.06650340     0.13100
C1309       C  0.12736771  0.56839882  0.06893343    -0.31100
C1310       C  0.20498077  0.52569080  0.18598452    -0.31400
N1311       N  0.23571178  0.52910092  0.17984762     0.13600
H1312       H  0.19911417  0.00662578  0.20250428     0.16200
C1313       C  0.23287359  0.55591174  0.15891361    -0.31400
H1314       H  0.25438691  0.56541463  0.15166078     0.16200
H1315       H  0.13586485  0.57607910  0.04649838     0.16200
H1316       H  0.12151497  0.60863298  0.21604700     0.16300
H1317       H  0.09195997  0.51637122  0.10770253     0.16200
Fe1318     Fe  0.31479599  0.70176663  0.19174779     1.65800
Fe1319     Fe  0.38920033  0.73569454  0.19032781     1.73200
Fe1320     Fe  0.31396977  0.74382508  0.11789504     1.54400
O1321       O  0.27765706  0.70602063  0.10207898    -0.81600
O1322       O  0.37666438  0.78389092  0.18696195    -0.79900
O1323       O  0.29677198  0.67058921  0.14717106    -0.84100
O1324       O  0.27056410  0.73073349  0.17264584    -0.79000
O1325       O  0.34786486  0.71895549  0.09804371    -0.80700
O1326       O  0.38705206  0.73827618  0.24436055    -0.83500
C1327       C  0.26310412  0.75764827  0.15602776     0.97300
C1328       C  0.27566100  0.67873180  0.11600229     1.04700
O1329       O  0.33940971  0.72675597  0.16681216    -1.12500
O1330       O  0.40210834  0.68667099  0.19741197    -0.74900
O1331       O  0.35679407  0.67153816  0.21428235    -0.78400
O1332       O  0.28000394  0.76927884  0.13688792    -0.79100
C1333       C  0.38741683  0.66708171  0.21303565     0.96200
O1334       O  0.33114544  0.73052612  0.23826119    -0.77000
O1335       O  0.39739829  0.73706094  0.13870881    -0.82200
C1336       C  0.35658364  0.79880829  0.15930496     0.98800
C1337       C  0.37876061  0.72938929  0.10558607     1.04700
O1338       O  0.34485971  0.78511357  0.12780582    -0.77900
C1339       C  0.36187359  0.73922517  0.25727197     1.03000
C1340       C  0.30522951  0.84836918  0.41194990     0.30100
C1341       C  0.33816229  0.80935663  0.37455585     0.30100
C1342       C  0.32341478  0.86627984  0.38774999    -0.06100
C1343       C  0.33481585  0.82664326  0.43569532    -0.06900
C1344       C  0.28147150  0.82373988  0.38382253    -0.06800
C1345       C  0.33988922  0.84632092  0.36866099    -0.06100
C1346       C  0.35127947  0.80662806  0.41687606    -0.06900
C1347       C  0.29832620  0.80444134  0.36486022    -0.06800
C1348       C  0.34819737  0.86586069  0.34367804    -0.32200
N1349       N  0.33992751  0.89700484  0.34862814     0.14300
C1350       C  0.32349725  0.89741695  0.37421772    -0.32200
H1351       H  0.30971372  0.91833827  0.37966538     0.16300
C1352       C  0.37211884  0.78533725  0.44237960    -0.31100
N1353       N  0.36944975  0.79253615  0.47600517     0.13100
C1354       C  0.34666555  0.81761281  0.47209779    -0.31100
C1355       C  0.27409751  0.78239957  0.34415024    -0.31400
N1356       N  0.24371066  0.78606560  0.35131046     0.13600
H1357       H  0.27835251  0.76412844  0.32568413     0.16200
C1358       C  0.24725015  0.81212355  0.37418099    -0.31400
H1359       H  0.22648284  0.82133177  0.38331950     0.16200
H1360       H  0.33724088  0.82680371  0.49360057     0.16200
H1361       H  0.35667920  0.85802804  0.32106618     0.16300
H1362       H  0.38646949  0.76496142  0.43655693     0.16200
Fe1363     Fe  0.16946010  0.95349659  0.35702288     1.65800
Fe1364     Fe  0.09433943  0.98985789  0.35441929     1.73200
Fe1365     Fe  0.16892867  0.49939311  0.42832455     1.54400
O1366       O  0.20515990  0.96073469  0.44511146    -0.81600
O1367       O  0.10680171  0.53849713  0.35882993    -0.79900
O1368       O  0.18399538  0.92357904  0.40158074    -0.84100
O1369       O  0.21472525  0.98196408  0.37744381    -0.79000
O1370       O  0.13447735  0.97655229  0.44845575    -0.80700
O1371       O  0.09885658  0.99165983  0.30108142    -0.83500
C1372       C  0.22063678  0.01056601  0.39124327     0.97300
C1373       C  0.20616394  0.93236346  0.43189095     1.04700
O1374       O  0.14387532  0.98066739  0.37981700    -1.12500
O1375       O  0.08065172  0.94106582  0.34579859    -0.74900
O1376       O  0.12751363  0.92383454  0.33257212    -0.78400
O1377       O  0.20321167  0.52321758  0.40917582    -0.79100
C1378       C  0.09605393  0.92056891  0.33127625     0.96200
O1379       O  0.15529986  0.98111927  0.31140206    -0.77000
O1380       O  0.08460286  0.99122052  0.40511255    -0.82200
C1381       C  0.12643408  0.55457208  0.38623598     0.98800
C1382       C  0.10233556  0.98430649  0.43857504     1.04700
O1383       O  0.13896120  0.54188236  0.41790476    -0.77900
C1384       C  0.12593792  0.99199648  0.29120251     1.03000
Fe1385     Fe  0.13693957  0.74588164  0.32681621     1.65800
Fe1386     Fe  0.18501308  0.70880060  0.28152532     1.73200
Fe1387     Fe  0.10528416  0.73734356  0.23357300     1.54400
O1388       O  0.07341401  0.70855206  0.25091035    -0.81600
O1389       O  0.18522855  0.73544357  0.23599724    -0.79900
O1390       O  0.08477737  0.72923400  0.30807767    -0.84100
O1391       O  0.12235088  0.79047960  0.30651752    -0.79000
O1392       O  0.12014419  0.69771224  0.20559963    -0.80700
O1393       O  0.21589718  0.74422253  0.31255520    -0.83500
C1394       C  0.09544496  0.79737375  0.27979024     0.97300
C1395       C  0.06509788  0.71355546  0.27967421     1.04700
O1396       O  0.14257158  0.73072695  0.28090751    -1.12500
O1397       O  0.18690515  0.67993050  0.32620099    -0.74900
O1398       O  0.14991951  0.70181660  0.35166228    -0.78400
O1399       O  0.08381114  0.77869899  0.25166957    -0.79100
C1400       C  0.16838646  0.67837884  0.34718718     0.96200
O1401       O  0.18803350  0.76566635  0.34823937    -0.77000
O1402       O  0.15922459  0.67106873  0.24995185    -0.82200
C1403       C  0.16711365  0.75844829  0.21671126     0.98800
C1404       C  0.14010944  0.67327312  0.21678021     1.04700
O1405       O  0.13673991  0.76631183  0.21626127    -0.77900
C1406       C  0.21426563  0.76446553  0.33684288     1.03000
Fe1407     Fe  0.34449337  0.99039665  0.21320576     1.65800
Fe1408     Fe  0.29386522  0.95743980  0.25743819     1.73200
Fe1409     Fe  0.37319712  0.98649018  0.30664814     1.54400
O1410       O  0.40668720  0.95698099  0.29160819    -0.81600
O1411       O  0.29192024  0.98628719  0.30166754    -0.79900
O1412       O  0.39781353  0.97577611  0.23494972    -0.84100
O1413       O  0.35701159  0.53603346  0.23160088    -0.79000
O1414       O  0.35896616  0.94747431  0.33429175    -0.80700
O1415       O  0.26404263  0.99177821  0.22424328    -0.83500
C1416       C  0.38334045  0.54397275  0.25869569     0.97300
C1417       C  0.41740973  0.96246898  0.26482289     1.04700
O1418       O  0.33701591  0.97807185  0.25885327    -1.12500
O1419       O  0.29282199  0.92690062  0.21359923    -0.74900
O1420       O  0.33292409  0.94508330  0.19072660    -0.78400
O1421       O  0.39428761  0.52682451  0.28768288    -0.79100
C1422       C  0.31244203  0.92334843  0.19392700     0.96200
O1423       O  0.29280811  0.00850968  0.18789782    -0.77000
O1424       O  0.31840909  0.92031104  0.29091910    -0.82200
C1425       C  0.30989938  0.00938541  0.32135025     0.98800
C1426       C  0.33926511  0.92278354  0.32353149     1.04700
O1427       O  0.34063797  0.01631678  0.32271919    -0.77900
C1428       C  0.26581058  0.00890724  0.19804752     1.03000
C1429       C  0.07826444  0.89167091  0.31078448    -0.05400
C1430       C  0.07097301  0.86582591  0.33005865    -0.32800
C1431       C  0.07056656  0.83412153  0.31637565     0.36400
C1432       C  0.07816549  0.82814223  0.28351377    -0.05800
C1433       C  0.07987077  0.85425288  0.26153831    -0.32700
C1434       C  0.07984250  0.88599510  0.27499241     0.36300
H1435       H  0.06976700  0.86971350  0.35756084     0.16700
O1436       O  0.06749604  0.80884596  0.33776421    -0.60200
H1437       H  0.08551840  0.85011883  0.23618518     0.16700
O1438       O  0.08524606  0.91126152  0.25479016    -0.60300
H1439       H  0.11064051  0.91096779  0.25848443     0.43700
H1440       H  0.04265262  0.80221544  0.32745634     0.43700
C1441       C  0.13859890  0.58683501  0.37891272    -0.05400
C1442       C  0.14414164  0.61313713  0.40384861    -0.32800
C1443       C  0.15575895  0.64316263  0.39523896     0.36400
C1444       C  0.16372435  0.64655429  0.36230094    -0.05800
C1445       C  0.15995281  0.61964196  0.33878275    -0.32700
C1446       C  0.14696687  0.59054527  0.34637486     0.36300
H1447       H  0.13834644  0.61077034  0.42923285     0.16700
O1448       O  0.15832958  0.66915663  0.41859696    -0.60200
H1449       H  0.16489445  0.62168261  0.31286546     0.16700
O1450       O  0.14196660  0.56584063  0.32104208    -0.60300
H1451       H  0.15776439  0.54828647  0.33418047     0.43700
H1452       H  0.18219789  0.66779214  0.43690359     0.43700
C1453       C  0.29466894  0.02691834  0.34535102    -0.05400
C1454       C  0.30656065  0.01964614  0.38295883    -0.32800
C1455       C  0.28332555  0.02154311  0.40272375     0.36400
C1456       C  0.24815730  0.02920302  0.38404438    -0.05800
C1457       C  0.23986769  0.54365055  0.34990592    -0.32700
C1458       C  0.26300383  0.54218332  0.33009086     0.36300
H1459       H  0.33214224  0.00888536  0.39568339     0.16700
O1460       O  0.29425205  0.01287669  0.43899216    -0.60200
H1461       H  0.21381451  0.55273891  0.33668828     0.16700
O1462       O  0.25220531  0.55178571  0.29405797    -0.60300
H1463       H  0.26398576  0.57277320  0.29444535     0.43700
H1464       H  0.30023808  0.03350876  0.45313773     0.43700
C1465       C  0.23712417  0.91112834  0.44693404    -0.05400
C1466       C  0.23311292  0.87752925  0.44816396    -0.32800
C1467       C  0.25924961  0.85648720  0.44459691     0.36400
C1468       C  0.28672186  0.86893223  0.43380981    -0.05800
C1469       C  0.29431518  0.90192515  0.44115074    -0.32700
C1470       C  0.26989152  0.92287356  0.44819778     0.36300
H1471       H  0.20903245  0.86764079  0.44974270     0.16700
O1472       O  0.25657358  0.82397428  0.44952752    -0.60200
H1473       H  0.31839492  0.91187675  0.43987682     0.16700
O1474       O  0.27641468  0.95529490  0.45122008    -0.60300
H1475       H  0.28289493  0.96039835  0.47797004     0.43700
H1476       H  0.26962037  0.82039167  0.47602837     0.43700
C1477       C  0.40089216  0.57403314  0.25450313    -0.05400
C1478       C  0.40355568  0.59996280  0.27904903    -0.32800
C1479       C  0.40569359  0.63164019  0.26751766     0.36400
C1480       C  0.40478318  0.63740734  0.23103095    -0.05800
C1481       C  0.40796197  0.61123919  0.20888074    -0.32700
C1482       C  0.40626299  0.57957736  0.22054427     0.36300
H1483       H  0.39976756  0.59611029  0.30527591     0.16700
O1484       O  0.40329278  0.65699473  0.29002309    -0.60200
H1485       H  0.40722818  0.61521689  0.18082569     0.16700
O1486       O  0.40521602  0.55439206  0.19649398    -0.60300
H1487       H  0.42795453  0.54307300  0.20698511     0.43700
H1488       H  0.42773885  0.66172242  0.30554868     0.43700
C1489       C  0.34325413  0.83090263  0.16558472    -0.05400
C1490       C  0.33651275  0.85549556  0.13928237    -0.32800
C1491       C  0.32391134  0.88580034  0.14652233     0.36400
C1492       C  0.31609694  0.89090672  0.17935185    -0.05800
C1493       C  0.32017413  0.86539738  0.20381989    -0.32700
C1494       C  0.33483115  0.83615881  0.19793015     0.36300
H1495       H  0.34232268  0.85165589  0.11397998     0.16700
O1496       O  0.32047928  0.91048358  0.12213913    -0.60200
H1497       H  0.31491087  0.86895720  0.22949423     0.16700
O1498       O  0.34069670  0.81257888  0.22403514    -0.60300
H1499       H  0.35665414  0.82243425  0.24711613     0.43700
H1500       H  0.29638038  0.90849889  0.10440103     0.43700
C1501       C  0.35593273  0.78632383  0.35406108    -0.05400
C1502       C  0.38005602  0.79759694  0.33784557    -0.32800
C1503       C  0.38587959  0.78048876  0.30855487     0.36400
C1504       C  0.36738680  0.75175167  0.29523026    -0.05800
C1505       C  0.35029833  0.73697417  0.31708896    -0.32700
C1506       C  0.34638282  0.75339841  0.34792208     0.36300
H1507       H  0.39396286  0.81993916  0.34721120     0.16700
O1508       O  0.40730658  0.79343641  0.29140635    -0.60200
H1509       H  0.33899135  0.71316321  0.30946931     0.16700
O1510       O  0.33282650  0.73784498  0.37156205    -0.60300
H1511       H  0.31527063  0.72199988  0.35679475     0.43700
H1512       H  0.43001623  0.78213379  0.30213760     0.43700
C1513       C  0.38935974  0.73976425  0.07413209    -0.05400
C1514       C  0.40320374  0.77104754  0.07577257    -0.32800
C1515       C  0.39946831  0.78795217  0.04335907     0.36400
C1516       C  0.38249581  0.77339518  0.00872406    -0.05800
C1517       C  0.37310652  0.74068331  0.00704539    -0.32700
C1518       C  0.37611874  0.72392239  0.03947246     0.36300
H1519       H  0.41331408  0.78384407  0.10200189     0.16700
O1520       O  0.40975844  0.81964211  0.04574854    -0.60200
H1521       H  0.36044747  0.72906454  0.98050672     0.16700
O1522       O  0.36397915  0.69279538  0.03698194    -0.60300
H1523       H  0.33811896  0.69464425  0.02775211     0.43700
H1524       H  0.43255372  0.81918218  0.04147797     0.43700
C1525       C  0.18220463  0.77506992  0.19277447    -0.05400
C1526       C  0.21296840  0.79228336  0.20976470    -0.32800
C1527       C  0.23898216  0.79229508  0.19365877     0.36400
C1528       C  0.23360614  0.77531295  0.16029052    -0.05800
C1529       C  0.20018609  0.76401030  0.13997104    -0.32700
C1530       C  0.17419095  0.76380778  0.15622095     0.36300
H1531       H  0.21904986  0.80117708  0.23790660     0.16700
O1532       O  0.27134534  0.80408479  0.21353498    -0.60200
H1533       H  0.19590146  0.75091238  0.11419707     0.16700
O1534       O  0.14387401  0.74712015  0.13916264    -0.60300
H1535       H  0.12617264  0.76395583  0.12778569     0.43700
H1536       H  0.28212162  0.78759770  0.23250691     0.43700
C1537       C  0.24509611  0.65773852  0.09897319    -0.05400
C1538       C  0.21167023  0.67009470  0.09498204    -0.32800
C1539       C  0.18508502  0.64928214  0.09667581     0.36400
C1540       C  0.19264057  0.61623318  0.10409587    -0.05800
C1541       C  0.22183377  0.60367039  0.09629667    -0.32700
C1542       C  0.24908512  0.62415164  0.09612317     0.36300
H1543       H  0.20724381  0.69596787  0.09456202     0.16700
O1544       O  0.15268366  0.66168766  0.09294122    -0.60200
H1545       H  0.22514118  0.57786961  0.09395593     0.16700
O1546       O  0.28048036  0.61111009  0.09683699    -0.60300
H1547       H  0.27902820  0.60949296  0.07059840     0.43700
H1548       H  0.13820162  0.65678553  0.06702581     0.43700
C1549       C  0.13577110  0.54245526  0.19767370    -0.05400
C1550       C  0.10519795  0.02384221  0.19230359    -0.32800
C1551       C  0.09987316  0.00789140  0.22252498     0.36400
C1552       C  0.12618760  0.00896410  0.25761497    -0.05800
C1553       C  0.15620633  0.52726170  0.26198884    -0.32700
C1554       C  0.15967721  0.54569639  0.23404650     0.36300
H1555       H  0.08556630  0.02196351  0.16526515     0.16700
O1556       O  0.07019047  0.99010409  0.21705809    -0.60200
H1557       H  0.17715344  0.52806223  0.28808196     0.16700
O1558       O  0.18815454  0.56577586  0.24223214    -0.60300
H1559       H  0.18376118  0.58346551  0.25790997     0.43700
H1560       H  0.05173214  0.00620454  0.21639779     0.43700
C1561       C  0.09022797  0.52439596  0.03384378    -0.05400
C1562       C  0.10007725  0.99231057  0.03434155    -0.32800
C1563       C  0.09901870  0.97629920  0.00151654     0.36400
C1564       C  0.08774164  0.49198287  0.46793742    -0.05800
C1565       C  0.07203024  0.52246337  0.46730110    -0.32700
C1566       C  0.07348012  0.53920547  0.99975715     0.36300
H1567       H  0.11235053  0.98046677  0.06046130     0.16700
O1568       O  0.11387019  0.94467118  0.50357744    -0.60200
H1569       H  0.06250483  0.53580145  0.44179753     0.16700
O1570       O  0.06272169  0.57081749  0.99863190    -0.60300
H1571       H  0.03885985  0.56991119  0.00022425     0.43700
H1572       H  0.13797197  0.94776982  0.01385975     0.43700
C1573       C  0.96023958  0.69655240  0.27746079    -0.05400
C1574       C  0.96805220  0.69521148  0.24460764    -0.32800
C1575       C  0.00244347  0.69835079  0.24502828     0.36400
C1576       C  0.02998652  0.70302794  0.27889045    -0.05800
C1577       C  0.02250360  0.70151793  0.31192728    -0.32700
C1578       C  0.98805947  0.69825443  0.31147826     0.36300
H1579       H  0.94718182  0.69360152  0.21823082     0.16700
O1580       O  0.00833266  0.69889024  0.21190479    -0.60200
H1581       H  0.04319364  0.70455191  0.33824756     0.16700
O1582       O  0.98183096  0.69907108  0.34444715    -0.60300
H1583       H  0.97997069  0.72235826  0.35017862     0.43700
H1584       H  0.00417526  0.72163845  0.20366175     0.43700
C1585       C  0.52773277  0.95643731  0.28080911    -0.05400
C1586       C  0.51604070  0.95654189  0.31123776    -0.32800
C1587       C  0.48025031  0.95625841  0.30640767     0.36400
C1588       C  0.45502136  0.95615520  0.27043687    -0.05800
C1589       C  0.46671074  0.95415393  0.24005743    -0.32700
C1590       C  0.50252879  0.95409629  0.24489385     0.36300
H1591       H  0.53467684  0.95805048  0.33900502     0.16700
O1592       O  0.47039110  0.95784243  0.33724469    -0.60200
H1593       H  0.44801283  0.95384571  0.21227872     0.16700
O1594       O  0.51238944  0.95324871  0.21404553    -0.60300
H1595       H  0.51019607  0.97588297  0.20532348     0.43700
H1596       H  0.46957243  0.48197558  0.34246456     0.43700
C1597       C  0.91462090  0.87288715  0.23975924    -0.05400
C1598       C  0.91521261  0.84499800  0.21890146    -0.32800
C1599       C  0.91162478  0.81442416  0.23247545     0.36400
C1600       C  0.90695550  0.81148837  0.26718101    -0.05800
C1601       C  0.91191944  0.83877793  0.29031557    -0.32700
C1602       C  0.91586961  0.86941933  0.27680265     0.36300
H1603       H  0.91382336  0.84706350  0.19036910     0.16700
O1604       O  0.90834020  0.78787069  0.20969898    -0.60200
H1605       H  0.90880747  0.83699748  0.31714074     0.16700
O1606       O  0.91642211  0.89638612  0.29832473    -0.60300
H1607       H  0.89180491  0.90008570  0.29685249     0.43700
H1608       H  0.93114475  0.77646602  0.21911024     0.43700
C1609       C  0.85266635  0.56824680  0.17681118    -0.05400
C1610       C  0.85165541  0.57431937  0.21247998    -0.32800
C1611       C  0.83898894  0.60347848  0.22168518     0.36400
C1612       C  0.82763417  0.62818170  0.19553470    -0.05800
C1613       C  0.82899787  0.62263917  0.15979965    -0.32700
C1614       C  0.84049202  0.59254184  0.15002495     0.36300
H1615       H  0.86021374  0.55603236  0.23354371     0.16700
O1616       O  0.83991171  0.60824350  0.25732197    -0.60200
H1617       H  0.82134792  0.64166730  0.13958012     0.16700
O1618       O  0.84113836  0.58769565  0.11487908    -0.60300
H1619       H  0.81660735  0.58294479  0.09960634     0.43700
H1620       H  0.81607663  0.60281571  0.25696540     0.43700
C1621       C  0.73997331  0.00566877  0.17001528    -0.05400
C1622       C  0.70778529  0.99008024  0.15543726    -0.32800
C1623       C  0.68418787  0.99122755  0.17453937     0.36400
C1624       C  0.69352211  0.00749739  0.20875441    -0.05800
C1625       C  0.72281508  0.02763307  0.22001473    -0.32700
C1626       C  0.74557304  0.02769631  0.19961664     0.36300
H1627       H  0.70286733  0.97382987  0.13197592     0.16700
O1628       O  0.65495167  0.97214214  0.16278204    -0.60200
H1629       H  0.72966730  0.04077933  0.24607196     0.16700
O1630       O  0.77550802  0.04570439  0.21174951    -0.60300
H1631       H  0.76874731  0.06719578  0.20040471     0.43700
H1632       H  0.63597855  0.98658479  0.14801303     0.43700
C1633       C  0.75394622  0.89236351  0.10863257    -0.05400
C1634       C  0.72134589  0.90580078  0.10593562    -0.32800
C1635       C  0.69631521  0.88717775  0.11471104     0.36400
C1636       C  0.70445670  0.85491618  0.12614812    -0.05800
C1637       C  0.73164469  0.83989587  0.11669039    -0.32700
C1638       C  0.75756682  0.85856269  0.11025761     0.36300
H1639       H  0.71670147  0.93132425  0.10064236     0.16700
O1640       O  0.66352468  0.89955019  0.10984937    -0.60200
H1641       H  0.73441126  0.81389459  0.11716246     0.16700
O1642       O  0.78775286  0.84395577  0.10938317    -0.60300
H1643       H  0.78521960  0.84233738  0.08284009     0.43700
H1644       H  0.66629916  0.92275822  0.11704910     0.43700
C1645       C  0.57618630  0.63453275  0.32271313    -0.05400
C1646       C  0.57348439  0.60810361  0.34384500    -0.32800
C1647       C  0.57885929  0.57664961  0.33263911     0.36400
C1648       C  0.58670696  0.57148200  0.29979943    -0.05800
C1649       C  0.58329283  0.59722421  0.27570806    -0.32700
C1650       C  0.57778553  0.62869209  0.28687501     0.36300
H1651       H  0.57243200  0.61202585  0.37140677     0.16700
O1652       O  0.58031496  0.55152512  0.35599348    -0.60200
H1653       H  0.58883444  0.59360116  0.25022122     0.16700
O1654       O  0.58063118  0.65412060  0.26556683    -0.60300
H1655       H  0.55627412  0.65946242  0.25032464     0.43700
H1656       H  0.55773597  0.54006157  0.34515840     0.43700
C1657       C  0.64226934  0.82778588  0.40310051    -0.05400
C1658       C  0.61490989  0.84733374  0.38160988    -0.32800
C1659       C  0.62168726  0.87726814  0.36916267     0.36400
C1660       C  0.65643056  0.88783239  0.37730067    -0.05800
C1661       C  0.68382823  0.86913404  0.40007628    -0.32700
C1662       C  0.67694117  0.83936296  0.41340351     0.36300
H1663       H  0.58822286  0.83864476  0.37291682     0.16700
O1664       O  0.59433475  0.89471161  0.34617174    -0.60200
H1665       H  0.71059050  0.87722400  0.40682885     0.16700
O1666       O  0.70432801  0.82107128  0.43487887    -0.60300
H1667       H  0.71914563  0.81638383  0.41942947     0.43700
H1668       H  0.58355658  0.90597103  0.36267370     0.43700
C1669       C  0.63223295  0.75012922  0.27603393    -0.05400
C1670       C  0.62389618  0.73490920  0.24134185    -0.32800
C1671       C  0.62862725  0.75113073  0.21143652     0.36400
C1672       C  0.64074018  0.78352073  0.21587919    -0.05800
C1673       C  0.65093978  0.79712115  0.25192834    -0.32700
C1674       C  0.64541000  0.78150226  0.28105830     0.36300
H1675       H  0.61558035  0.70987945  0.23797759     0.16700
O1676       O  0.62470683  0.73386161  0.17967583    -0.60200
H1677       H  0.66535717  0.81954238  0.25857513     0.16700
O1678       O  0.65572005  0.79616349  0.31531016    -0.60300
H1679       H  0.63546564  0.80956928  0.31572338     0.43700
H1680       H  0.64815767  0.72469842  0.18269381     0.43700
C1681       C  0.60110110  0.76568909  0.05254059    -0.05400
C1682       C  0.58553319  0.78207448  0.01943645    -0.32800
C1683       C  0.58058938  0.76539042  0.48565339     0.36400
C1684       C  0.59339344  0.73367865  0.48450101    -0.05800
C1685       C  0.60454741  0.71715166  0.01753413    -0.32700
C1686       C  0.60840503  0.73242497  0.05141472     0.36300
H1687       H  0.57989695  0.80769288  0.02014016     0.16700
O1688       O  0.56859537  0.78347575  0.45426695    -0.60200
H1689       H  0.61409707  0.69259932  0.01741061     0.16700
O1690       O  0.62344074  0.71573421  0.08343342    -0.60300
H1691       H  0.64896459  0.71930424  0.09006568     0.43700
H1692       H  0.54348627  0.77796211  0.44321848     0.43700
C1693       C  0.75638549  0.75445499  0.40252949    -0.05400
C1694       C  0.74845360  0.77267844  0.37035801    -0.32800
C1695       C  0.77194454  0.77351441  0.35099169     0.36400
C1696       C  0.80384609  0.75688445  0.36484548    -0.05800
C1697       C  0.81413625  0.74368614  0.40022620    -0.32700
C1698       C  0.79005298  0.74164839  0.41882547     0.36300
H1699       H  0.72226065  0.78209010  0.35746727     0.16700
O1700       O  0.76125903  0.78571130  0.31596033    -0.60200
H1701       H  0.83858975  0.73048205  0.41072086     0.16700
O1702       O  0.79793199  0.72356136  0.45022104    -0.60300
H1703       H  0.79370199  0.70075974  0.44148490     0.43700
H1704       H  0.76590416  0.80925986  0.31933155     0.43700
C1705       C  0.73162831  0.64471978  0.43988923    -0.05400
C1706       C  0.76208713  0.63924167  0.47052236    -0.32800
C1707       C  0.78984997  0.61979023  0.46678227     0.36400
C1708       C  0.78738188  0.60688966  0.43173400    -0.05800
C1709       C  0.75815393  0.61540968  0.40136480    -0.32700
C1710       C  0.73045914  0.63256633  0.40503652     0.36300
H1711       H  0.76420991  0.64968135  0.49720789     0.16700
O1712       O  0.81944758  0.61532339  0.49661644    -0.60200
H1713       H  0.75582514  0.60719301  0.37367483     0.16700
O1714       O  0.70220502  0.63729363  0.37362079    -0.60300
H1715       H  0.70994049  0.65315587  0.35886740     0.43700
H1716       H  0.81169674  0.60415988  0.51519281     0.43700
C1717       C  0.86653382  0.99313168  0.29419766    -0.05400
C1718       C  0.83739263  0.51298081  0.28794646    -0.32800
C1719       C  0.83040391  0.52881338  0.31643112     0.36400
C1720       C  0.85322588  0.52574963  0.35334272    -0.05800
C1721       C  0.88395091  0.50705691  0.35987564    -0.32700
C1722       C  0.89052140  0.99031370  0.33035540     0.36300
H1723       H  0.81880741  0.51541746  0.26042545     0.16700
O1724       O  0.79981062  0.54629135  0.30795913    -0.60200
H1725       H  0.90249342  0.50501325  0.38745947     0.16700
O1726       O  0.91920636  0.97053766  0.33724141    -0.60300
H1727       H  0.93715309  0.98382081  0.33195271     0.43700
H1728       H  0.80350225  0.56585655  0.29525337     0.43700
C1729       C  0.89577492  0.47528028  0.08040093    -0.05400
C1730       C  0.91234587  0.00511628  0.08191135    -0.32800
C1731       C  0.90896549  0.02191505  0.04950693     0.36400
C1732       C  0.88949727  0.50883137  0.01513100    -0.05800
C1733       C  0.87677863  0.47724403  0.01309202    -0.32700
C1734       C  0.87951252  0.46052833  0.04542995     0.36300
H1735       H  0.92461973  0.01720132  0.10826252     0.16700
O1736       O  0.92167135  0.05228635  0.55245565    -0.60200
H1737       H  0.86186865  0.46676148  0.98653275     0.16700
O1738       O  0.86382945  0.43085909  0.04266476    -0.60300
H1739       H  0.83831272  0.43527957  0.03404487     0.43700
H1740       H  0.94334328  0.05040233  0.54599834     0.43700
C1741       C  0.81199618  0.58401732  0.92100376     0.30100
C1742       C  0.84272195  0.54461068  0.88262796     0.30100
C1743       C  0.82546767  0.60053671  0.89274068    -0.06100
C1744       C  0.84608380  0.56673919  0.94523264    -0.06900
C1745       C  0.79022696  0.55466101  0.90048919    -0.06800
C1746       C  0.84080147  0.58073377  0.87361905    -0.06100
C1747       C  0.86208109  0.54590538  0.92508430    -0.06900
C1748       C  0.80565317  0.53516485  0.88116744    -0.06800
C1749       C  0.85473245  0.60034931  0.85317008    -0.32200
N1750       N  0.84856301  0.63180145  0.85972344     0.14300
C1751       C  0.83055957  0.63217450  0.88392378    -0.32200
H1752       H  0.82080017  0.65381521  0.89348188     0.16300
C1753       C  0.88013687  0.52249008  0.94955974    -0.31100
N1754       N  0.87783684  0.52914741  0.98331400     0.13100
C1755       C  0.85611430  0.55477969  0.98054406    -0.31100
C1756       C  0.78231644  0.51057667  0.86534518    -0.31400
N1757       N  0.75256127  0.51484029  0.87397678     0.13600
H1758       H  0.78657455  0.99121245  0.84779155     0.16200
C1759       C  0.75730326  0.54168900  0.89592787    -0.31400
H1760       H  0.73793425  0.55165142  0.90681531     0.16200
H1761       H  0.84509216  0.56135967  0.00163679     0.16200
H1762       H  0.86781811  0.59225090  0.83421905     0.16300
H1763       H  0.89118615  0.50041330  0.94266302     0.16200
Fe1764     Fe  0.66984816  0.68990952  0.87246389     1.65800
Fe1765     Fe  0.59970710  0.73160656  0.87133322     1.73200
Fe1766     Fe  0.67473599  0.73436571  0.94614780     1.54400
O1767       O  0.70777612  0.69275016  0.96054184    -0.81600
O1768       O  0.61561967  0.77885317  0.87887100    -0.79900
O1769       O  0.67412683  0.66230284  0.91719817    -0.84100
O1770       O  0.71830164  0.71202327  0.89613772    -0.79000
O1771       O  0.63759080  0.71404594  0.96403092    -0.80700
O1772       O  0.60642870  0.73366058  0.81959991    -0.83500
C1773       C  0.72713707  0.74008113  0.90997704     0.97300
C1774       C  0.70279751  0.66625980  0.94239849     1.04700
O1775       O  0.64798679  0.71974893  0.89578000    -1.12500
O1776       O  0.58155296  0.68384684  0.86030459    -0.74900
O1777       O  0.62593253  0.66513275  0.84425448    -0.78400
O1778       O  0.71091925  0.75530848  0.92794864    -0.79100
C1779       C  0.59487133  0.66310667  0.84391779     0.96200
O1780       O  0.66183758  0.71870323  0.82786425    -0.77000
O1781       O  0.58950021  0.73317111  0.92140735    -0.82200
C1782       C  0.63512245  0.79360893  0.90748707     0.98800
C1783       C  0.60659903  0.72515798  0.95459585     1.04700
O1784       O  0.64959516  0.77929615  0.93797336    -0.77900
C1785       C  0.63321241  0.73209147  0.80920703     1.03000
C1786       C  0.68586461  0.83654349  0.64919093     0.30100
C1787       C  0.65323124  0.80114424  0.68812874     0.30100
C1788       C  0.66679377  0.85658126  0.67171953    -0.06100
C1789       C  0.65676529  0.81347163  0.62648618    -0.06900
C1790       C  0.70988001  0.81342843  0.67874385    -0.06800
C1791       C  0.64904116  0.83821029  0.68967923    -0.06100
C1792       C  0.63984648  0.79522805  0.64594427    -0.06900
C1793       C  0.69272956  0.79580767  0.69799299    -0.06800
C1794       C  0.63288482  0.85915546  0.70732369    -0.32200
N1795       N  0.64223450  0.88981631  0.70360450     0.14300
C1796       C  0.66367027  0.88856682  0.68272909    -0.32200
H1797       H  0.67858204  0.90892785  0.67894416     0.16300
C1798       C  0.61521695  0.77659128  0.61986822    -0.31100
N1799       N  0.61759823  0.78252062  0.58612685     0.13100
C1800       C  0.64263344  0.80509885  0.58987807    -0.31100
C1801       C  0.71352180  0.76958418  0.71304852    -0.31400
N1802       N  0.74341801  0.77064802  0.70479690     0.13600
H1803       H  0.70643189  0.74999656  0.72748599     0.16200
C1804       C  0.74196641  0.79756310  0.68454574    -0.31400
H1805       H  0.76273785  0.80441777  0.67450496     0.16200
H1806       H  0.65102495  0.81366639  0.56771627     0.16200
H1807       H  0.61761233  0.85250812  0.72440776     0.16300
H1808       H  0.59691727  0.75982613  0.62451635     0.16200
Fe1809     Fe  0.82353028  0.93390663  0.69712082     1.65800
Fe1810     Fe  0.89687591  0.97081330  0.69742739     1.73200
Fe1811     Fe  0.82028036  0.47997755  0.62624731     1.54400
O1812       O  0.78442131  0.94137784  0.61036447    -0.81600
O1813       O  0.88324041  0.51913496  0.69492103    -0.79900
O1814       O  0.80839992  0.90403408  0.65171940    -0.84100
O1815       O  0.77769365  0.96121741  0.67839651    -0.79000
O1816       O  0.85326411  0.95653723  0.60415393    -0.80700
O1817       O  0.89447151  0.97296526  0.75152436    -0.83500
C1818       C  0.77037022  0.98959307  0.66539069     0.97300
C1819       C  0.78467541  0.91294523  0.62273429     1.04700
O1820       O  0.84735786  0.96118068  0.67382661    -1.12500
O1821       O  0.91158253  0.92188716  0.70468867    -0.74900
O1822       O  0.86606715  0.90493647  0.71980676    -0.78400
O1823       O  0.78757936  0.50375195  0.64831467    -0.79100
C1824       C  0.89704883  0.90152318  0.71962547     0.96200
O1825       O  0.83840050  0.96236489  0.74282447    -0.77000
O1826       O  0.90399636  0.97250730  0.64511566    -0.82200
C1827       C  0.86313116  0.53512655  0.66818007     0.98800
C1828       C  0.88468495  0.96558314  0.61188091     1.04700
O1829       O  0.85006249  0.52214287  0.63638668    -0.77900
C1830       C  0.86771940  0.97418694  0.76191044     1.03000
Fe1831     Fe  0.63968848  0.98714792  0.84038374     1.65800
Fe1832     Fe  0.68705303  0.94470525  0.79793180     1.73200
Fe1833     Fe  0.61295406  0.98196189  0.74761385     1.54400
O1834       O  0.57614198  0.95579088  0.76001613    -0.81600
O1835       O  0.69281250  0.97101184  0.75433120    -0.79900
O1836       O  0.58530288  0.97585010  0.81708983    -0.84100
O1837       O  0.63106578  0.53337907  0.82140323    -0.79000
O1838       O  0.62572965  0.94196267  0.71862140    -0.80700
O1839       O  0.72147199  0.97599434  0.83238777    -0.83500
C1840       C  0.60449995  0.54158207  0.79490148     0.97300
C1841       C  0.56542186  0.96243944  0.78687293     1.04700
O1842       O  0.64684872  0.97131032  0.79575194    -1.12500
O1843       O  0.68377045  0.91616354  0.84104269    -0.74900
O1844       O  0.64629474  0.94226159  0.86282125    -0.78400
O1845       O  0.59307417  0.52407065  0.76583903    -0.79100
C1846       C  0.66370718  0.91737699  0.86039283     0.96200
O1847       O  0.69327892  0.00102715  0.86581981    -0.77000
O1848       O  0.65711855  0.91038015  0.76320648    -0.82200
C1849       C  0.67855596  0.99594567  0.73578853     0.98800
C1850       C  0.64141039  0.91522534  0.72942573     1.04700
O1851       O  0.64970769  0.50825514  0.73571827    -0.77900
C1852       C  0.72093287  0.99618458  0.85718904     1.03000
Fe1853     Fe  0.84886749  0.72929195  0.72724143     1.65800
Fe1854     Fe  0.80170510  0.69260792  0.77195708     1.73200
Fe1855     Fe  0.88060783  0.72347949  0.82025762     1.54400
O1856       O  0.91464934  0.69586384  0.80343573    -0.81600
O1857       O  0.80072551  0.71863132  0.81824084    -0.79900
O1858       O  0.90200461  0.71593896  0.74662674    -0.84100
O1859       O  0.86007442  0.77481208  0.74749494    -0.79000
O1860       O  0.86779533  0.68308553  0.84739137    -0.80700
O1861       O  0.77013463  0.72809240  0.74218855    -0.83500
C1862       C  0.88795902  0.78236408  0.77278036     0.97300
C1863       C  0.92305865  0.70215951  0.77522733     1.04700
O1864       O  0.84367648  0.71499600  0.77297222    -1.12500
O1865       O  0.79999325  0.66360327  0.72642999    -0.74900
O1866       O  0.83925928  0.68374795  0.70382152    -0.78400
O1867       O  0.90017704  0.76514954  0.80160418    -0.79100
C1868       C  0.82055036  0.66068373  0.70771592     0.96200
O1869       O  0.79694302  0.74673858  0.70491029    -0.77000
O1870       O  0.82903311  0.65557532  0.80267182    -0.82800
C1871       C  0.81771575  0.74214907  0.83790247     0.98800
C1872       C  0.84906306  0.65790460  0.83557716     1.04700
O1873       O  0.84732893  0.75150722  0.83770136    -0.77900
C1874       C  0.77149919  0.74730085  0.71750224     1.03000
C1875       C  0.17538763  0.59642411  0.62770209     0.30100
C1876       C  0.14538225  0.55963434  0.66799704     0.30100
C1877       C  0.16278764  0.61517880  0.65655112    -0.06100
C1878       C  0.14159389  0.57791228  0.60551849    -0.06900
C1879       C  0.19880284  0.56891012  0.65103512    -0.06800
C1880       C  0.14708937  0.59611293  0.67585189    -0.06100
C1881       C  0.12615708  0.55867702  0.62604375    -0.06900
C1882       C  0.18239576  0.55004251  0.66954130    -0.06800
C1883       C  0.13392921  0.61596551  0.69722346    -0.32200
N1884       N  0.14125273  0.64698529  0.69224702     0.14300
C1885       C  0.15983199  0.64688789  0.66847657    -0.32200
H1886       H  0.17152534  0.66826688  0.66178319     0.16300
C1887       C  0.10494194  0.53664452  0.60135942    -0.31100
N1888       N  0.10521221  0.54333219  0.56694525     0.13100
C1889       C  0.12788826  0.56791250  0.56941173    -0.31100
C1890       C  0.20438347  0.52504305  0.68557804    -0.31400
N1891       N  0.23512681  0.52846651  0.67951199     0.13600
H1892       H  0.19852455  0.00627174  0.70193854     0.16200
C1893       C  0.23253603  0.55552141  0.65903394    -0.31400
H1894       H  0.25413908  0.56507979  0.65197915     0.16200
H1895       H  0.13669030  0.57547516  0.54714342     0.16200
H1896       H  0.12087328  0.60827966  0.71606526     0.16300
H1897       H  0.09267719  0.51565698  0.60811327     0.16200
Fe1898     Fe  0.31482623  0.70156551  0.69171998     1.65800
Fe1899     Fe  0.38930541  0.73544840  0.69043418     1.73200
Fe1900     Fe  0.31417188  0.74336106  0.61775894     1.54400
O1901       O  0.27796000  0.70550489  0.60195712    -0.81600
O1902       O  0.37684913  0.78358183  0.68688756    -0.79900
O1903       O  0.29704382  0.67024604  0.64722683    -0.84100
O1904       O  0.27047791  0.73040122  0.67225407    -0.79000
O1905       O  0.34829734  0.71841056  0.59829649    -0.80700
O1906       O  0.38697314  0.73817375  0.74444196    -0.83500
C1907       C  0.26283129  0.75716219  0.65531909     0.97300
C1908       C  0.27592465  0.67830029  0.61602672     1.04700
O1909       O  0.33949776  0.72651806  0.66682169    -1.12500
O1910       O  0.40212599  0.68646489  0.69753037    -0.74900
O1911       O  0.35685478  0.67138992  0.71451141    -0.78400
O1912       O  0.27986447  0.76881914  0.63631474    -0.79100
C1913       C  0.38740830  0.66686488  0.71309284     0.96200
O1914       O  0.33100615  0.73049146  0.73815825    -0.77000
O1915       O  0.39769632  0.73677067  0.63890958    -0.82200
C1916       C  0.35669428  0.79840180  0.65920436     0.98800
C1917       C  0.37910565  0.72903715  0.60579584     1.04700
O1918       O  0.34500609  0.78467730  0.62771434    -0.77900
C1919       C  0.36172151  0.73919886  0.75725864     1.03000
C1920       C  0.30480721  0.84800721  0.91208087     0.30100
C1921       C  0.33794500  0.80903946  0.87476964     0.30100
C1922       C  0.32244958  0.86589526  0.88735003    -0.06100
C1923       C  0.33489463  0.82676450  0.93590201    -0.06900
C1924       C  0.28128227  0.82290117  0.88443664    -0.06800
C1925       C  0.33901327  0.84594595  0.86833705    -0.06100
C1926       C  0.35147383  0.80682417  0.91708984    -0.06900
C1927       C  0.29823632  0.80360052  0.86556253    -0.06800
C1928       C  0.34750326  0.86543872  0.84347277    -0.32200
N1929       N  0.33914164  0.89657206  0.84830743     0.14300
C1930       C  0.32262858  0.89703293  0.87385721    -0.32200
H1931       H  0.30902695  0.91801189  0.87948615     0.16300
C1932       C  0.37254195  0.78570055  0.94257596    -0.31100
N1933       N  0.36986526  0.79283951  0.97618542     0.13100
C1934       C  0.34687533  0.81774707  0.97231204    -0.31100
C1935       C  0.27414996  0.78133248  0.84507482    -0.31400
N1936       N  0.24373317  0.78497713  0.85215410     0.13600
H1937       H  0.27848826  0.76293034  0.82677455     0.16200
C1938       C  0.24711843  0.81114253  0.87483856    -0.31400
H1939       H  0.22621758  0.82044917  0.88369757     0.16200
H1940       H  0.33728924  0.82669882  0.99379459     0.16200
H1941       H  0.35630146  0.85758834  0.82108520     0.16300
H1942       H  0.38694756  0.76537512  0.93674556     0.16200
Fe1943     Fe  0.17005933  0.95377258  0.85748408     1.65800
Fe1944     Fe  0.09459359  0.98967424  0.85423186     1.73200
Fe1945     Fe  0.16864540  0.49938663  0.92884242     1.54400
O1946       O  0.20488674  0.96064102  0.94565628    -0.81600
O1947       O  0.10658802  0.53775604  0.85839054    -0.79900
O1948       O  0.18412489  0.92361593  0.90180968    -0.84100
O1949       O  0.21543338  0.98187951  0.87869932    -0.79000
O1950       O  0.13390559  0.97682400  0.94822286    -0.80700
O1951       O  0.09950440  0.99102267  0.80107283    -0.83500
C1952       C  0.22124398  0.01049416  0.89239405     0.97300
C1953       C  0.20602202  0.93228477  0.93235807     1.04700
O1954       O  0.14412047  0.98073654  0.88002253    -1.12500
O1955       O  0.08140478  0.94079858  0.84617436    -0.74900
O1956       O  0.12817581  0.92427469  0.83234322    -0.78400
O1957       O  0.20287050  0.52346904  0.90984031    -0.79100
C1958       C  0.09684514  0.92063255  0.83131416     0.96200
O1959       O  0.15631980  0.98185519  0.81223687    -0.77000
O1960       O  0.08432214  0.99162551  0.90460717    -0.82200
C1961       C  0.12600154  0.55398034  0.88576916     0.98800
C1962       C  0.10185109  0.98490642  0.93816540     1.04700
O1963       O  0.13818898  0.54154304  0.91761602    -0.77900
C1964       C  0.12681454  0.99214657  0.79166024     1.03000
Fe1965     Fe  0.13679995  0.74512190  0.82705921     1.65800
Fe1966     Fe  0.18484881  0.70830814  0.78160577     1.73200
Fe1967     Fe  0.10528611  0.73719894  0.73373148     1.54400
O1968       O  0.07308207  0.70855716  0.75076197    -0.81600
O1969       O  0.18519764  0.73492251  0.73606036    -0.79900
O1970       O  0.08449014  0.72887893  0.80807403    -0.84100
O1971       O  0.12261963  0.78985189  0.80718716    -0.79000
O1972       O  0.11988999  0.69749415  0.70572096    -0.80700
O1973       O  0.21577067  0.74362597  0.81271617    -0.83500
C1974       C  0.09591944  0.79704443  0.78037016     0.97300
C1975       C  0.06471377  0.71348760  0.77949910     1.04700
O1976       O  0.14246953  0.73028648  0.78106581    -1.12500
O1977       O  0.18681662  0.67938961  0.82623570    -0.74900
O1978       O  0.14940605  0.70088389  0.85138005    -0.78400
O1979       O  0.08420801  0.77860111  0.75206322    -0.79100
C1980       C  0.16810158  0.67761986  0.84698680     0.96200
O1981       O  0.18804695  0.76449422  0.84885292    -0.77000
O1982       O  0.15878603  0.67070582  0.75011218    -0.82200
C1983       C  0.16720968  0.75798920  0.71678928     0.98800
C1984       C  0.13965916  0.67294319  0.71696429     1.04700
O1985       O  0.13695165  0.76606842  0.71652850    -0.77900
C1986       C  0.21423633  0.76350868  0.83737776     1.03000
Fe1987     Fe  0.34370528  0.98978520  0.71258262     1.65800
Fe1988     Fe  0.29314641  0.95684799  0.75691240     1.73200
Fe1989     Fe  0.37261187  0.98582681  0.80594422     1.54400
O1990       O  0.40602651  0.95640402  0.79065944    -0.81600
O1991       O  0.29123855  0.98569395  0.80116447    -0.79900
O1992       O  0.39727531  0.97575665  0.73430805    -0.84100
O1993       O  0.35576428  0.53562416  0.73138696    -0.79000
O1994       O  0.35855780  0.94675773  0.83366439    -0.80700
O1995       O  0.26339625  0.99121201  0.72368764    -0.83500
C1996       C  0.38218069  0.54369773  0.75827852     0.97300
C1997       C  0.41693023  0.96244123  0.76413903     1.04700
O1998       O  0.33631206  0.97737999  0.75826455    -1.12500
O1999       O  0.29228896  0.92628429  0.71310956    -0.74900
O2000       O  0.33254592  0.94440781  0.69033844    -0.78400
O2001       O  0.39323167  0.52671734  0.78739356    -0.79100
C2002       C  0.31204198  0.92269883  0.69356380     0.96200
O2003       O  0.29198970  0.00749670  0.68702298    -0.77000
O2004       O  0.31751439  0.91977663  0.79056393    -0.82200
C2005       C  0.30943290  0.00855238  0.82111409     0.98800
C2006       C  0.33854696  0.92224030  0.82310449     1.04700
O2007       O  0.34014344  0.01548249  0.82235967    -0.77900
C2008       C  0.26512545  0.00816154  0.69734572     1.03000
C2009       C  0.07934330  0.89160788  0.81097137    -0.05400
C2010       C  0.07189027  0.86595047  0.83037784    -0.32800
C2011       C  0.07151446  0.83417071  0.81698552     0.36400
C2012       C  0.07902318  0.82796195  0.78411043    -0.05800
C2013       C  0.08097158  0.85388724  0.76202352    -0.32700
C2014       C  0.08121920  0.88568676  0.77533521     0.36300
H2015       H  0.07060090  0.87004202  0.85781801     0.16700
O2016       O  0.06860796  0.80907622  0.83869706    -0.60200
H2017       H  0.08667641  0.84953197  0.73673629     0.16700
O2018       O  0.08716495  0.91073066  0.75516830    -0.60300
H2019       H  0.11255707  0.90995643  0.75887842     0.43700
H2020       H  0.04444047  0.80092517  0.82708768     0.43700
C2021       C  0.13816950  0.58616020  0.87835048    -0.05400
C2022       C  0.14420150  0.61227452  0.90354493    -0.32800
C2023       C  0.15594535  0.64224725  0.89504142     0.36400
C2024       C  0.16348124  0.64575796  0.86189979    -0.05800
C2025       C  0.15921028  0.61903399  0.83805135    -0.32700
C2026       C  0.14614474  0.58997200  0.84558828     0.36300
H2027       H  0.13873176  0.60980016  0.92909714     0.16700
O2028       O  0.15906606  0.66810166  0.91870520    -0.60200
H2029       H  0.16384327  0.62121786  0.81198498     0.16700
O2030       O  0.14080393  0.56539107  0.82007177    -0.60300
H2031       H  0.15682908  0.54787537  0.83292741     0.43700
H2032       H  0.18233788  0.66553276  0.93786249     0.43700
C2033       C  0.29455135  0.02579675  0.84561018    -0.05400
C2034       C  0.30671429  0.01813292  0.88310670    -0.32800
C2035       C  0.28395997  0.02051665  0.90340535     0.36400
C2036       C  0.24890992  0.02899906  0.88534141    -0.05800
C2037       C  0.23947844  0.54398313  0.85078213    -0.32700
C2038       C  0.26220228  0.54199612  0.83048913     0.36300
H2039       H  0.33208250  0.00682876  0.89535369     0.16700
O2040       O  0.29506926  0.01139477  0.93952530    -0.60200
H2041       H  0.21344489  0.55327787  0.83782929     0.16700
O2042       O  0.25122316  0.55168538  0.79450210    -0.60300
H2043       H  0.26172122  0.57334633  0.79513194     0.43700
H2044       H  0.30584619  0.03102967  0.95378941     0.43700
C2045       C  0.23685939  0.91087184  0.94763777    -0.05400
C2046       C  0.23261751  0.87726456  0.94836001    -0.32800
C2047       C  0.25868874  0.85618562  0.94466770     0.36400
C2048       C  0.28620375  0.86860118  0.93390746    -0.05800
C2049       C  0.29396478  0.90155422  0.94157667    -0.32700
C2050       C  0.26980299  0.92245600  0.94930588     0.36300
H2051       H  0.20846316  0.86741455  0.94978357     0.16700
O2052       O  0.25607736  0.82369992  0.94979116    -0.60200
H2053       H  0.31803382  0.91147979  0.94022208     0.16700
O2054       O  0.27684293  0.95475619  0.95369948    -0.60300
H2055       H  0.28344399  0.95899159  0.98063794     0.43700
H2056       H  0.26870575  0.82031812  0.97643505     0.43700
C2057       C  0.39972780  0.57362109  0.75358302    -0.05400
C2058       C  0.40394253  0.59941032  0.77865005    -0.32800
C2059       C  0.40649748  0.63107215  0.76727716     0.36400
C2060       C  0.40456841  0.63694734  0.73048604    -0.05800
C2061       C  0.40618477  0.61079511  0.70764191    -0.32700
C2062       C  0.40392671  0.57917669  0.71905455     0.36300
H2063       H  0.40107930  0.59554641  0.80531039     0.16700
O2064       O  0.40552958  0.65638503  0.79044199    -0.60200
H2065       H  0.40457713  0.61487380  0.67933065     0.16700
O2066       O  0.40122038  0.55414948  0.69437081    -0.60300
H2067       H  0.42450085  0.54352340  0.70249835     0.43700
H2068       H  0.42981870  0.66463022  0.80000500     0.43700
C2069       C  0.34327431  0.83042382  0.66547423    -0.05400
C2070       C  0.33589266  0.85481846  0.63889976    -0.32800
C2071       C  0.32311651  0.88504029  0.64609476     0.36400
C2072       C  0.31587543  0.89025477  0.67922084    -0.05800
C2073       C  0.32071401  0.86497018  0.70407640    -0.32700
C2074       C  0.33536102  0.83578427  0.69810567     0.36300
H2075       H  0.34127146  0.85088058  0.61337180     0.16700
O2076       O  0.31889690  0.90953524  0.62133113    -0.60200
H2077       H  0.31593558  0.86865845  0.72999373     0.16700
O2078       O  0.34165512  0.81236210  0.72441819    -0.60300
H2079       H  0.35864771  0.82209667  0.74693874     0.43700
H2080       H  0.29441966  0.90763019  0.60448129     0.43700
C2081       C  0.35591929  0.78609573  0.85436069    -0.05400
C2082       C  0.38008599  0.79739774  0.83821670    -0.32800
C2083       C  0.38598243  0.78024467  0.80891778     0.36400
C2084       C  0.36715449  0.75170871  0.79525035    -0.05800
C2085       C  0.34973017  0.73706301  0.81687944    -0.32700
C2086       C  0.34646511  0.75318055  0.84800459     0.36300
H2087       H  0.39398068  0.81974287  0.84765189     0.16700
O2088       O  0.40785251  0.79288684  0.79212314    -0.60200
H2089       H  0.33775202  0.71354055  0.80901638     0.16700
O2090       O  0.33173118  0.73739915  0.87025928    -0.60300
H2091       H  0.35092218  0.72429319  0.88697330     0.43700
H2092       H  0.43173767  0.78675914  0.80804200     0.43700
C2093       C  0.38953004  0.73964791  0.57431317    -0.05400
C2094       C  0.40272490  0.77117184  0.57582447    -0.32800
C2095       C  0.39872971  0.78807525  0.54333284     0.36400
C2096       C  0.38219497  0.77327729  0.50872531    -0.05800
C2097       C  0.37339365  0.74041126  0.50721446    -0.32700
C2098       C  0.37662639  0.72365840  0.53971934     0.36300
H2099       H  0.41251903  0.78410017  0.60199825     0.16700
O2100       O  0.40836212  0.81994498  0.54557064    -0.60200
H2101       H  0.36103063  0.72860241  0.48072940     0.16700
O2102       O  0.36504358  0.69234589  0.53736113    -0.60300
H2103       H  0.33915722  0.69381436  0.52824606     0.43700
H2104       H  0.43340514  0.81957132  0.54771677     0.43700
C2105       C  0.18213675  0.77425659  0.69242963    -0.05400
C2106       C  0.21266597  0.79199929  0.70880325    -0.32800
C2107       C  0.23836903  0.79226193  0.69223941     0.36400
C2108       C  0.23308378  0.77469458  0.65926125    -0.05800
C2109       C  0.19980511  0.76272890  0.63950002    -0.32700
C2110       C  0.17404194  0.76246002  0.65607746     0.36300
H2111       H  0.21881388  0.80135177  0.73676772     0.16700
O2112       O  0.27051394  0.80491378  0.71140189    -0.60200
H2113       H  0.19551420  0.74930336  0.61394320     0.16700
O2114       O  0.14391361  0.74533128  0.63959283    -0.60300
H2115       H  0.12668796  0.76154556  0.62546374     0.43700
H2116       H  0.28217095  0.78860530  0.73026622     0.43700
C2117       C  0.24522204  0.65742481  0.59922206    -0.05400
C2118       C  0.21194781  0.66994201  0.59560397    -0.32800
C2119       C  0.18532932  0.64930166  0.59753755     0.36400
C2120       C  0.19271683  0.61618143  0.60480610    -0.05800
C2121       C  0.22172218  0.60348264  0.59672272    -0.32700
C2122       C  0.24898977  0.62382862  0.59627629     0.36300
H2123       H  0.20770004  0.69582820  0.59524629     0.16700
O2124       O  0.15312555  0.66201209  0.59420978    -0.60200
H2125       H  0.22485458  0.57767121  0.59425655     0.16700
O2126       O  0.28018373  0.61064202  0.59652500    -0.60300
H2127       H  0.27859913  0.60947506  0.57022586     0.43700
H2128       H  0.13691932  0.65269091  0.57089310     0.43700
C2129       C  0.13579067  0.54211999  0.69806877    -0.05400
C2130       C  0.10531296  0.02426611  0.69283009    -0.32800
C2131       C  0.10024811  0.00836011  0.72318703     0.36400
C2132       C  0.12693178  0.00914059  0.75805146    -0.05800
C2133       C  0.15695579  0.52660191  0.76230091    -0.32700
C2134       C  0.16001566  0.54522321  0.73430420     0.36300
H2135       H  0.08544874  0.02254632  0.66590957     0.16700
O2136       O  0.07035973  0.99098689  0.71807658    -0.60200
H2137       H  0.17812641  0.52740202  0.78826212     0.16700
O2138       O  0.18840502  0.56537555  0.74225832    -0.60300
H2139       H  0.18391230  0.58319749  0.75771744     0.43700
H2140       H  0.05241415  0.00729174  0.71847341     0.43700
C2141       C  0.09122157  0.52364620  0.53427639    -0.05400
C2142       C  0.10152337  0.99135825  0.53505947    -0.32800
C2143       C  0.10025673  0.97532327  0.50217779     0.36400
C2144       C  0.08722592  0.49251687  0.96775441    -0.05800
C2145       C  0.07171334  0.52313702  0.96688491    -0.32700
C2146       C  0.07409785  0.53844937  0.50029137     0.36300
H2147       H  0.11427565  0.97970956  0.56120445     0.16700
O2148       O  0.11222842  0.94548735  0.00295553    -0.60200
H2149       H  0.06253102  0.53644257  0.94133811     0.16700
O2150       O  0.06322907  0.57001207  0.49934847    -0.60300
H2151       H  0.03859269  0.56887306  0.49855573     0.43700
H2152       H  0.13958109  0.94721840  0.51449321     0.43700
C2153       C  0.95968152  0.69664100  0.77695674    -0.05400
C2154       C  0.96750115  0.69585863  0.74409199    -0.32800
C2155       C  0.00188421  0.69915337  0.74456435     0.36400
C2156       C  0.02947596  0.70317241  0.77850928    -0.05800
C2157       C  0.02198756  0.70113444  0.81150297    -0.32700
C2158       C  0.98751463  0.69790243  0.81099623     0.36300
H2159       H  0.94663500  0.69466677  0.71768170     0.16700
O2160       O  0.00771151  0.70058819  0.71145365    -0.60200
H2161       H  0.04271048  0.70373384  0.83786783     0.16700
O2162       O  0.98129276  0.69831216  0.84396837    -0.60300
H2163       H  0.97970271  0.72153412  0.85014883     0.43700
H2164       H  0.00378106  0.72355771  0.70402172     0.43700
C2165       C  0.52765359  0.95686930  0.78119827    -0.05400
C2166       C  0.51561233  0.95802049  0.81138929    -0.32800
C2167       C  0.47973883  0.95788940  0.80621187     0.36400
C2168       C  0.45473511  0.95678360  0.77013224    -0.05800
C2169       C  0.46673405  0.95408507  0.74001519    -0.32700
C2170       C  0.50264187  0.95389379  0.74519952     0.36300
H2171       H  0.53403475  0.96019277  0.83920706     0.16700
O2172       O  0.46954582  0.96060106  0.83677281    -0.60200
H2173       H  0.44820420  0.95313532  0.71216247     0.16700
O2174       O  0.51277203  0.95216673  0.71454892    -0.60300
H2175       H  0.51168183  0.97474116  0.70584224     0.43700
H2176       H  0.46809635  0.48390376  0.84148535     0.43700
C2177       C  0.91477824  0.87228141  0.73861753    -0.05400
C2178       C  0.91399648  0.84447602  0.71716470    -0.32800
C2179       C  0.91003660  0.81395863  0.73059457     0.36400
C2180       C  0.90638598  0.81102009  0.76576586    -0.05800
C2181       C  0.91277134  0.83808506  0.78934390    -0.32700
C2182       C  0.91706021  0.86867374  0.77594144     0.36300
H2183       H  0.91177634  0.84667466  0.68840379     0.16700
O2184       O  0.90542990  0.78755521  0.70738762    -0.60200
H2185       H  0.91049141  0.83626680  0.81653784     0.16700
O2186       O  0.91885755  0.89555246  0.79795012    -0.60300
H2187       H  0.89447589  0.89999147  0.79688546     0.43700
H2188       H  0.92871530  0.77699230  0.71420107     0.43700
C2189       C  0.85204585  0.56805936  0.67610280    -0.05400
C2190       C  0.85117536  0.57422725  0.71180200    -0.32800
C2191       C  0.83847951  0.60338574  0.72094575     0.36400
C2192       C  0.82709675  0.62804239  0.69473888    -0.05800
C2193       C  0.82821199  0.62236849  0.65893426    -0.32700
C2194       C  0.83957534  0.59220391  0.64918208     0.36300
H2195       H  0.85985817  0.55601177  0.73293385     0.16700
O2196       O  0.83935445  0.60817828  0.75656216    -0.60200
H2197       H  0.82039841  0.64131375  0.63862425     0.16700
O2198       O  0.83971878  0.58711221  0.61388732    -0.60300
H2199       H  0.81502179  0.58274018  0.59887493     0.43700
H2200       H  0.81533756  0.60329669  0.75604788     0.43700
C2201       C  0.74035165  0.00562775  0.67067702    -0.05400
C2202       C  0.70821098  0.98997056  0.65603818    -0.32800
C2203       C  0.68452444  0.99108523  0.67501630     0.36400
C2204       C  0.69366112  0.00748681  0.70914830    -0.05800
C2205       C  0.72294948  0.02762811  0.72051220    -0.32700
C2206       C  0.74585816  0.02766063  0.70026787     0.36300
H2207       H  0.70345684  0.97359615  0.63269330     0.16700
O2208       O  0.65549369  0.97172651  0.66330775    -0.60200
H2209       H  0.72969479  0.04078840  0.74655507     0.16700
O2210       O  0.77582965  0.04562776  0.71252932    -0.60300
H2211       H  0.76854193  0.06789187  0.70395321     0.43700
H2212       H  0.63569250  0.98662369  0.65186210     0.43700
C2213       C  0.75362784  0.89202388  0.60875800    -0.05400
C2214       C  0.72092718  0.90549907  0.60562629    -0.32800
C2215       C  0.69580039  0.88696977  0.61435163     0.36400
C2216       C  0.70385788  0.85471052  0.62583639    -0.05800
C2217       C  0.73101972  0.83961679  0.61643974    -0.32700
C2218       C  0.75723424  0.85823576  0.61051669     0.36300
H2219       H  0.71631920  0.93101947  0.60023601     0.16700
O2220       O  0.66302496  0.89942450  0.60939154    -0.60200
H2221       H  0.73368644  0.81360521  0.61688902     0.16700
O2222       O  0.78773705  0.84367823  0.61054240    -0.60300
H2223       H  0.78262728  0.83469474  0.58521051     0.43700
H2224       H  0.66586380  0.92261767  0.61665859     0.43700
C2225       C  0.57628642  0.63446935  0.82373634    -0.05400
C2226       C  0.57364665  0.60781528  0.84460449    -0.32800
C2227       C  0.57870278  0.57644768  0.83287745     0.36400
C2228       C  0.58640912  0.57160027  0.79990332    -0.05800
C2229       C  0.58304797  0.59760617  0.77616408    -0.32700
C2230       C  0.57765686  0.62896534  0.78776388     0.36300
H2231       H  0.57278020  0.61146357  0.87227599     0.16700
O2232       O  0.58005732  0.55106619  0.85588214    -0.60200
H2233       H  0.58850111  0.59425317  0.75059526     0.16700
O2234       O  0.58036502  0.65462027  0.76669347    -0.60300
H2235       H  0.55596593  0.66000293  0.75161879     0.43700
H2236       H  0.55791573  0.53910680  0.84428283     0.43700
C2237       C  0.64218707  0.82810433  0.90360589    -0.05400
C2238       C  0.61510575  0.84713746  0.88074590    -0.32800
C2239       C  0.62210556  0.87690108  0.86819546     0.36400
C2240       C  0.65681395  0.88786513  0.87767653    -0.05800
C2241       C  0.68389213  0.86981841  0.90196471    -0.32700
C2242       C  0.67673337  0.84017224  0.91539768     0.36300
H2243       H  0.58852922  0.83813051  0.87104647     0.16700
O2244       O  0.59510771  0.89381985  0.84394182    -0.60200
H2245       H  0.71059904  0.87832654  0.90987034     0.16700
O2246       O  0.70376536  0.82250592  0.93852857    -0.60300
H2247       H  0.71971252  0.81766334  0.92436883     0.43700
H2248       H  0.58460312  0.90663734  0.85961109     0.43700
C2249       C  0.63249810  0.74959605  0.77628971    -0.05400
C2250       C  0.62557314  0.73396629  0.74197594    -0.32800
C2251       C  0.63012604  0.75029724  0.71202849     0.36400
C2252       C  0.64072039  0.78315404  0.71601221    -0.05800
C2253       C  0.64987000  0.79712897  0.75182642    -0.32700
C2254       C  0.64430731  0.78144420  0.78094209     0.36300
H2255       H  0.61840994  0.70862992  0.73894612     0.16700
O2256       O  0.62753821  0.73284382  0.68069693    -0.60200
H2257       H  0.66362231  0.81988196  0.75843260     0.16700
O2258       O  0.65348326  0.79651305  0.81494351    -0.60300
H2259       H  0.63383282  0.81142971  0.81360617     0.43700
H2260       H  0.65098789  0.72305825  0.68518307     0.43700
C2261       C  0.60176601  0.76421660  0.55275450    -0.05400
C2262       C  0.58553209  0.78062222  0.51977209    -0.32800
C2263       C  0.58116558  0.76675076  0.98550632     0.36400
C2264       C  0.59353130  0.73482027  0.98470666    -0.05800
C2265       C  0.60502661  0.71592098  0.51726994    -0.32700
C2266       C  0.60922955  0.73101962  0.55134523     0.36300
H2267       H  0.57959358  0.80615824  0.52065610     0.16700
O2268       O  0.57039835  0.78490930  0.95410670    -0.60200
H2269       H  0.61477415  0.69147129  0.51689715     0.16700
O2270       O  0.62462497  0.71423590  0.58321833    -0.60300
H2271       H  0.65015325  0.71715806  0.58901640     0.43700
H2272       H  0.54452415  0.78392581  0.94545872     0.43700
C2273       C  0.75634193  0.75500600  0.90283190    -0.05400
C2274       C  0.74837370  0.77345931  0.87080584    -0.32800
C2275       C  0.77141754  0.77379386  0.85087019     0.36400
C2276       C  0.80301239  0.75656637  0.86410281    -0.05800
C2277       C  0.81343202  0.74303752  0.89931016    -0.32700
C2278       C  0.78976814  0.74149069  0.91844733     0.36300
H2279       H  0.72233449  0.78340264  0.85840939     0.16700
O2280       O  0.76052941  0.78636647  0.81602115    -0.60200
H2281       H  0.83760889  0.72935373  0.90930809     0.16700
O2282       O  0.79766115  0.72312896  0.94964121    -0.60300
H2283       H  0.79245453  0.70048133  0.94064360     0.43700
H2284       H  0.77058353  0.80843233  0.81905264     0.43700
C2285       C  0.73238026  0.64572321  0.94060953    -0.05400
C2286       C  0.76303078  0.64018923  0.97098487    -0.32800
C2287       C  0.79056033  0.62059158  0.96690904     0.36400
C2288       C  0.78756864  0.60744189  0.93180775    -0.05800
C2289       C  0.75823902  0.61610375  0.90165895    -0.32700
C2290       C  0.73085954  0.63359214  0.90562880     0.36300
H2291       H  0.76548746  0.65069942  0.99772675     0.16700
O2292       O  0.82050435  0.61634105  0.99640322    -0.60200
H2293       H  0.75561265  0.60783959  0.87390943     0.16700
O2294       O  0.70250731  0.63858616  0.87438995    -0.60300
H2295       H  0.71040721  0.65407568  0.85937971     0.43700
H2296       H  0.81310077  0.60583602  0.01561216     0.43700
C2297       C  0.86740948  0.99344305  0.79440699    -0.05400
C2298       C  0.83846279  0.51348659  0.78802789    -0.32800
C2299       C  0.83105564  0.52913322  0.81640589     0.36400
C2300       C  0.85347970  0.52591567  0.85345181    -0.05800
C2301       C  0.88414043  0.50704816  0.86024559    -0.32700
C2302       C  0.89120891  0.99075994  0.83068299     0.36300
H2303       H  0.82020900  0.51610523  0.76038226     0.16700
O2304       O  0.80044323  0.54659878  0.80766565    -0.60200
H2305       H  0.90240157  0.50482498  0.88794500     0.16700
O2306       O  0.91996454  0.97104401  0.83784285    -0.60300
H2307       H  0.93838115  0.98474626  0.83407164     0.43700
H2308       H  0.80416523  0.56608371  0.79480039     0.43700
C2309       C  0.89553129  0.47476436  0.58001934    -0.05400
C2310       C  0.91223546  0.00449315  0.58203723    -0.32800
C2311       C  0.90894706  0.02139861  0.54976721     0.36400
C2312       C  0.88973751  0.50822961  0.51488054    -0.05800
C2313       C  0.87739309  0.47647729  0.51275969    -0.32700
C2314       C  0.87982797  0.45981553  0.54507001     0.36300
H2315       H  0.92410354  0.01664723  0.60842669     0.16700
O2316       O  0.92233110  0.05252418  0.05193444    -0.60200
H2317       H  0.86288427  0.46585340  0.48614523     0.16700
O2318       O  0.86442711  0.43001013  0.54226043    -0.60300
H2319       H  0.83887004  0.43421637  0.53345075     0.43700
H2320       H  0.94593848  0.04956467  0.04995616     0.43700
loop_ 
_geom_bond_atom_site_label_1 
_geom_bond_atom_site_label_2 
_geom_bond_distance 
_geom_bond_site_symmetry_2 
_ccdc_geom_bond_type 
C1            C3   1.541       .  S
C1            C5   1.548       .  S
C1            C4   1.561       .  S
C1          C548   1.528       .  S
C2            C6   1.533       .  S
C2            C8   1.539       .  S
C2            C7   1.556       .  S
C2          C560   1.526       .  S
C3           C11   1.392       .  A
C3            C6   1.368       .  A
C4           C15   1.378       .  A
C4            C7   1.439       .  A
C5           C19   1.399       .  A
C5            C8   1.368       .  A
C6            C9   1.386       .  A
C7           C13   1.384       .  A
C8           C16   1.383       .  A
C9           N10   1.357       .  A
C9           H22   1.083       .  S
N10          C11   1.362       .  A
N10         C132   1.440       .  S
C11          H12   1.083       .  S
C13          N14   1.354       .  A
C13          H23   1.081   1_545  S
N14          C15   1.355       .  A
N14        C1152   1.436       .  S
C15          H21   1.079       .  S
C16          N17   1.364       .  A
C16        H1178   1.083   1_545  S
N17          C19   1.358       .  A
N17        C1272   1.451   1_545  S
H18        C1176   1.083       .  S
C19          H20   1.082       .  S
Fe24         O40   2.035       .  S
Fe24         O30   2.083       .  S
Fe24         O37   2.027       .  S
Fe24         O29   2.038       .  S
Fe24         O35   1.894       .  S
Fe25         O28   2.047       .  S
Fe25         O32   2.100       .  S
Fe25         O36   2.099       .  S
Fe25         O41   2.101       .  S
Fe25         O35   1.931       .  S
Fe26         O44   2.090       .  S
Fe26         O31   2.045       .  S
Fe26         O38   2.029       .  S
Fe26         O27   2.134       .  S
Fe26         O35   1.962       .  S
O27          C34   1.270       .  A
O28          C42   1.270       .  A
O29          C34   1.251       .  A
O30          C33   1.271       .  A
O31          C43   1.270       .  A
O32          C45   1.278       .  A
C33          O38   1.260       .  A
C33         C533   1.448       .  S
C34         C545   1.483       .  S
O36          C39   1.275       .  A
O37          C39   1.260       .  A
C39         C485   1.472       .  S
O40          C45   1.271       .  A
O41          C43   1.279       .  A
C42          O44   1.275       .  A
C42         C497   1.477       .  S
C43         C524   1.475       .  S
C45         C509   1.458       .  S
C46          C48   1.565       .  S
C46          C50   1.559       .  S
C46          C49   1.538       .  S
C46         C476   1.540       .  S
C47          C51   1.540       .  S
C47          C53   1.534       .  S
C47          C52   1.543       .  S
C47         C512   1.534       .  S
C48          C56   1.399       .  A
C48          C51   1.389       .  A
C49          C60   1.368       .  A
C49          C52   1.404       .  A
C50          C64   1.403       .  A
C50          C53   1.390       .  A
C51          C54   1.379       .  A
C52          C58   1.383       .  A
C53          C61   1.378       .  A
C54          N55   1.349       .  A
C54          H67   1.082       .  S
N55          C56   1.367       .  A
N55         C110   1.439       .  S
C56          H57   1.081       .  S
C58          N59   1.357       .  A
C58          H68   1.079       .  S
N59          C60   1.355       .  A
N59         C521   1.432       .  S
C60          H66   1.083       .  S
C61          N62   1.354       .  A
C61          H63   1.083       .  S
N62          C64   1.358       .  A
N62         C134   1.447       .  S
C64          H65   1.079       .  S
Fe69         O85   2.017       .  S
Fe69         O75   2.086       .  S
Fe69         O82   2.041       .  S
Fe69         O74   2.043       .  S
Fe69         O80   1.906       .  S
Fe70         O77   2.113       .  S
Fe70         O81   2.104       .  S
Fe70         O86   2.132       .  S
Fe70       O1233   2.059       .  S
Fe70         O80   1.950       .  S
Fe71         O89   2.088   1_565  S
Fe71         O83   2.037   1_565  S
Fe71       O1236   2.033       .  S
Fe71       O1232   2.112       .  S
Fe71       O1240   1.950       .  S
O72       Fe1231   2.110       .  S
O72          C79   1.274       .  A
O73       Fe1230   2.058   1_545  S
O73          C87   1.269       .  A
O74          C79   1.263       .  A
O75          C78   1.276       .  A
O76       Fe1231   2.032       .  S
O76          C88   1.266       .  A
O77          C90   1.276       .  A
C78        O1243   1.261       .  A
C78         C461   1.452       .  S
C79         C473   1.475       .  S
O80       Fe1231   1.951       .  S
O81          C84   1.280       .  A
O82          C84   1.266       .  A
O83        C1238   1.261   1_545  A
C84         C437   1.477       .  S
O85          C90   1.269       .  A
O86          C88   1.286       .  A
C87          O89   1.270       .  A
C87         C449   1.487       .  S
C88        C1729   1.482       .  S
C90         C557   1.472       .  S
Fe91        O107   2.145       .  S
Fe91        O104   2.036       .  S
Fe91         O96   2.137       .  S
Fe91       O1257   2.028       .  S
Fe91        O102   1.934       .  S
Fe92         O95   2.092       .  S
Fe92         O99   2.026       .  S
Fe92        O103   2.090       .  S
Fe92        O108   2.034       .  S
Fe92        O102   1.937       .  S
Fe93         O98   2.134       .  S
Fe93         O94   2.038       .  S
Fe93       O1271   2.030       .  S
Fe93       O1265   2.117       .  S
Fe93        O102   1.955       .  S
O94         C101   1.273       .  A
O95         C109   1.282       .  A
O96         C101   1.291       .  A
O97       Fe1251   2.029   1_545  S
O97         C100   1.260       .  A
O98         C110   1.274       .  A
O99         C112   1.262       .  A
C100        O105   1.273       .  A
C100        C488   1.479       .  S
C101        C425   1.493       .  S
O103        C106   1.273       .  A
O104        C106   1.263       .  A
O105      Fe1253   2.118   1_545  S
C106        C500   1.472       .  S
O107        C112   1.286       .  A
O108        C110   1.258       .  A
C109       O1271   1.267       .  A
C109        C464   1.447       .  S
O111      Fe1253   2.029   1_545  S
O111       C1269   1.267   1_545  A
C112       N1177   1.451       .  S
Fe113       O129   2.117       .  S
Fe113       O119   2.022       .  S
Fe113       O126   2.055       .  S
Fe113       O118   2.104       .  S
Fe113       O124   1.941       .  S
Fe114       O117   2.074       .  S
Fe114       O121   2.037       .  S
Fe114       O125   2.087       .  S
Fe114       O130   2.031       .  S
Fe114       O124   1.934       .  S
Fe115       O133   2.039       .  S
Fe115       O120   2.143       .  S
Fe115       O127   2.137       .  S
Fe115       O116   2.042       .  S
Fe115       O124   1.960       .  S
O116        C123   1.271       .  A
O117        C131   1.277       .  A
O118        C123   1.283       .  A
O119        C122   1.259       .  A
O120        C132   1.280       .  A
O121        C134   1.263       .  A
C122        O127   1.278       .  A
C122        C440   1.483       .  S
C123        C413   1.480       .  S
O125        C128   1.275       .  A
O126        C128   1.265       .  A
C128        C452   1.483       .  S
O129        C134   1.278       .  A
O130        C132   1.257       .  A
C131        O133   1.268       .  A
C131        C536   1.448       .  S
C135        C137   1.562       .  S
C135        C139   1.565       .  S
C135        C138   1.551       .  S
C135        C380   1.543       .  S
C136        C140   1.532       .  S
C136        C142   1.534       .  S
C136        C141   1.540       .  S
C136        C389   1.532       .  S
C137        C145   1.400       .  A
C137        C140   1.386       .  A
C138        C149   1.370       .  A
C138        C141   1.414       .  A
C139        C153   1.410       .  A
C139        C142   1.379       .  A
C140        C143   1.377       .  A
C141        C147   1.382       .  A
C142        C150   1.373       .  A
C143        N144   1.350       .  A
C143        H156   1.083       .  S
N144        C145   1.366       .  A
N144        C244   1.438       .  S
C145        H146   1.081       .  S
C147        N148   1.360       .  A
C147        H157   1.081       .  S
N148        C149   1.358       .  A
N148        C401   1.436       .  S
C149        H155   1.083       .  S
C150        N151   1.354       .  A
C150       H1312   1.083       .  S
N151        C153   1.361       .  A
N151       C1428   1.447       .  S
H152       C1310   1.083       .  S
C153        H154   1.080       .  S
Fe158       O174   2.050       .  S
Fe158       O164   2.075       .  S
Fe158       O171   2.055       .  S
Fe158       O163   2.058       .  S
Fe158       O169   1.915       .  S
Fe159       O162   2.048       .  S
Fe159       O166   2.107       .  S
Fe159       O170   2.088       .  S
Fe159       O175   2.120       .  S
Fe159       O169   1.954       .  S
Fe160       O178   2.080       .  S
Fe160       O165   2.045       .  S
Fe160       O172   2.041       .  S
Fe160       O161   2.096       .  S
Fe160       O169   1.957       .  S
O161        C168   1.271       .  A
O162        C176   1.268       .  A
O163        C168   1.267       .  A
O164        C167   1.275       .  A
O165        C177   1.266       .  A
O166        C179   1.276       .  A
C167        O172   1.264       .  A
C167        C368   1.451       .  S
C168        C377   1.476       .  S
O170        C173   1.279       .  A
O171        C173   1.271       .  A
C173        C320   1.472       .  S
O174        C179   1.269       .  A
O175        C177   1.281       .  A
C176        O178   1.269       .  A
C176        C329   1.475       .  S
C177        C353   1.482       .  S
C179        C344   1.484       .  S
C180        C182   1.565       .  S
C180        C184   1.555       .  S
C180        C183   1.535       .  S
C180        C308   1.542       .  S
C181        C185   1.554       .  S
C181        C187   1.547       .  S
C181        C186   1.538       .  S
C181        C341   1.545       .  S
C182        C190   1.397       .  A
C182        C185   1.401       .  A
C183        C194   1.375       .  A
C183        C186   1.396       .  A
C184        C198   1.399       .  A
C184        C187   1.393       .  A
C185        C188   1.390       .  A
C186        C192   1.383       .  A
C187        C195   1.379       .  A
C188        N189   1.353       .  A
C188        H201   1.080       .  S
N189        C190   1.360       .  A
N189        C266   1.443       .  S
C190        H191   1.081       .  S
C192        N193   1.360       .  A
C192        H202   1.082       .  S
N193        C194   1.359       .  A
N193        C936   1.440       .  S
C194        H200   1.083       .  S
C195        N196   1.357       .  A
C195        H197   1.080       .  S
N196        C198   1.357       .  A
N196        C246   1.446       .  S
C198        H199   1.080       .  S
Fe203       O219   2.022       .  S
Fe203       O209   2.103       .  S
Fe203       O216   2.053       .  S
Fe203       O208   2.048       .  S
Fe203       O214   1.914       .  S
Fe204       O211   2.119       .  S
Fe204       O215   2.088       .  S
Fe204       O220   2.112       .  S
Fe204      O1367   2.055       .  S
Fe204       O214   1.956       .  S
Fe205       O223   2.093   1_565  S
Fe205       O217   2.044   1_565  S
Fe205      O1370   2.048       .  S
Fe205      O1366   2.120       .  S
Fe205      O1374   1.958       .  S
O206      Fe1365   2.119       .  S
O206        C213   1.276       .  A
O207      Fe1364   2.055   1_545  S
O207        C221   1.269       .  A
O208        C213   1.261       .  A
O209        C212   1.279       .  A
O210      Fe1365   2.048       .  S
O210        C222   1.270       .  A
O211        C224   1.277       .  A
C212       O1377   1.263       .  A
C212        C296   1.466       .  S
C213        C305   1.481       .  S
O214      Fe1365   1.958       .  S
O215        C218   1.276       .  A
O216        C218   1.269       .  A
O217       C1372   1.262       .  A
C218        C269   1.474       .  S
O219        C224   1.268       .  A
O220        C222   1.282       .  A
C221        O223   1.272       .  A
C221        C281   1.490       .  S
C222       C1564   1.477       .  S
C224        C392   1.481       .  S
Fe225       O241   2.123       .  S
Fe225       O231   2.020       .  S
Fe225       O238   2.052       .  S
Fe225       O230   2.111       .  S
Fe225       O236   1.947       .  S
Fe226       O229   2.086       .  S
Fe226       O233   2.028       .  S
Fe226       O237   2.086       .  S
Fe226       O242   2.030       .  S
Fe226       O236   1.933       .  S
Fe227       O245   2.032       .  S
Fe227       O232   2.136       .  S
Fe227       O239   2.122       .  S
Fe227       O228   2.039       .  S
Fe227       O236   1.960       .  S
O228        C235   1.272       .  A
O229        C243   1.281       .  A
O230        C235   1.285       .  A
O231        C234   1.259       .  A
O232        C244   1.276       .  A
O233        C246   1.261       .  A
C234        O239   1.275       .  A
C234        C272   1.475       .  S
C235        C416   1.483       .  S
O237        C240   1.275       .  A
O238        C240   1.264       .  A
C240        C284   1.485       .  S
O241        C246   1.280       .  A
O242        C244   1.256       .  A
C243        O245   1.267       .  A
C243        C365   1.448       .  S
Fe247       O263   2.132       .  S
Fe247       O260   2.040       .  S
Fe247       O252   2.131       .  S
Fe247      O1413   2.015       .  S
Fe247       O258   1.953       .  S
Fe248       O251   2.083       .  S
Fe248       O255   2.026       .  S
Fe248       O259   2.079       .  S
Fe248       O264   2.045       .  S
Fe248       O258   1.937       .  S
Fe249       O267   2.034       .  S
Fe249       O254   2.132       .  S
Fe249       O250   2.036       .  S
Fe249      O1421   2.126       .  S
Fe249       O258   1.958       .  S
O250        C257   1.268       .  A
O251        C265   1.279       .  A
O252        C257   1.287       .  A
O253      Fe1407   2.016   1_545  S
O253        C256   1.259       .  A
O254        C266   1.278       .  A
O255        C268   1.262       .  A
C256        O261   1.276       .  A
C256        C317   1.476       .  S
C257        C428   1.490       .  S
O259        C262   1.274       .  A
O260        C262   1.264       .  A
O261      Fe1409   2.124   1_545  S
C262        C332   1.470       .  S
O263        C268   1.280       .  A
O264        C266   1.260       .  A
C265        O267   1.266       .  A
C265        C293   1.452       .  S
C268       N1311   1.448       .  S
C269        C270   1.398       .  A
C269        C274   1.414       .  A
C270        C271   1.402       .  A
C270        H275   1.084       .  S
C271        C272   1.414       .  A
C271        O276   1.372       .  S
C272        C273   1.397       .  A
C273        C274   1.403       .  A
C273        H277   1.084       .  S
C274        O278   1.373       .  S
O276        H280   0.992       .  S
O278        H279   0.992       .  S
C281        C282   1.406       .  A
C281        C286   1.412       .  A
C282        C283   1.414       .  A
C282        H287   1.083       .  S
C283        C284   1.416       .  A
C283        O288   1.371       .  S
C284        C285   1.399       .  A
C285        C286   1.391       .  A
C285        H289   1.084       .  S
C286        O290   1.368       .  S
O288        H292   0.991       .  S
O290        H291   0.990       .  S
C293        C294   1.399       .  A
C293       C1458   1.399       .  A
C294        C295   1.396       .  A
C294        H299   1.084       .  S
C295        C296   1.403       .  A
C295        O300   1.367       .  S
C296       C1457   1.399       .  A
C297        C298   1.394       .  A
C297       C1456   1.399       .  A
C297        H301   1.076       .  S
C298       C1453   1.399       .  A
C298        O302   1.370       .  S
O300        H304   0.991       .  S
O302        H303   0.992       .  S
C305        C306   1.403       .  A
C305        C310   1.405       .  A
C306        C307   1.406       .  A
C306        H311   1.083       .  S
C307        C308   1.417       .  A
C307        O312   1.371       .  S
C308        C309   1.404       .  A
C309        C310   1.400       .  A
C309        H313   1.080       .  S
C310        O314   1.364       .  S
O312        H316   0.991       .  S
O314        H315   0.992       .  S
C317        C318   1.397       .  A
C317        C322   1.415       .  A
C318        C319   1.402       .  A
C318        H323   1.084       .  S
C319        C320   1.415       .  A
C319        O324   1.372       .  S
C320        C321   1.397       .  A
C321        C322   1.400       .  A
C321        H325   1.084       .  S
C322        O326   1.372       .  S
O324        H328   0.991       .  S
O326        H327   0.992       .  S
C329        C330   1.405       .  A
C329        C334   1.408       .  A
C330        C331   1.407       .  A
C330        H335   1.083       .  S
C331        C332   1.412       .  A
C331        O336   1.371       .  S
C332        C333   1.396       .  A
C333        C334   1.391       .  A
C333        H337   1.085       .  S
C334        O338   1.372       .  S
O336        H340   0.991       .  S
O338        H339   0.991       .  S
C341        C342   1.410       .  A
C341        C346   1.412       .  A
C342        C343   1.404       .  A
C342        H347   1.079       .  S
C343        C344   1.406       .  A
C343        O348   1.371       .  S
C344        C345   1.404       .  A
C345        C346   1.410       .  A
C345        H349   1.084       .  S
C346        O350   1.379       .  S
O348        H352   0.991       .  S
O350        H351   0.992       .  S
C353        C354   1.406       .  A
C353        C358   1.411       .  A
C354        C355   1.401       .  A
C354        H359   1.084       .  S
C355        C356   1.407       .  A
C355        O360   1.371       .  S
C356        C357   1.403       .  A
C356        N773   1.439   1_554  S
C357        C358   1.405       .  A
C357        H361   1.083   1_554  S
C358        O362   1.372       .  S
O360        H364   0.992       .  S
O362        H363   0.992       .  S
C365        C366   1.396       .  A
C365        C370   1.404       .  A
C366        C367   1.392       .  A
C366        H371   1.084       .  S
C367        C368   1.404       .  A
C367        O372   1.369       .  S
C368        C369   1.400       .  A
C369        C370   1.394       .  A
C369        H373   1.083       .  S
C370        O374   1.372       .  S
O372        H376   0.993       .  S
O374        H375   0.991       .  S
C377        C378   1.406       .  A
C377        C382   1.403       .  A
C378        C379   1.405       .  A
C378        H383   1.082       .  S
C379        C380   1.411       .  A
C379        O384   1.370       .  S
C380        C381   1.409       .  A
C381        C382   1.400       .  A
C381        H385   1.080       .  S
C382        O386   1.371       .  S
O384        H388   0.991       .  S
O386        H387   0.991       .  S
C389        C394   1.415       .  A
C389       C1550   1.413       .  A
C390        C391   1.422       .  A
C390       C1549   1.413       .  A
C390        H395   1.080       .  S
C391        C392   1.413       .  A
C391        O396   1.370       .  S
C392       C1553   1.390       .  A
C393        C394   1.372       .  A
C393       C1552   1.390       .  A
C393        H397   1.077       .  S
C394        O398   1.374       .  S
O396        H400   0.992       .  S
O398        H399   0.992       .  S
C401        C406   1.406   1_554  A
C401       C1562   1.402   1_545  A
C402        C403   1.403       .  A
C402       C1561   1.402       .  A
C402        H407   1.083       .  S
C403       C2144   1.410   1_554  A
C403        O988   1.372       .  S
C404        C405   1.405   1_565  A
C404       C2143   1.411       .  A
C404       C1382   1.478       .  S
C405        C986   1.398       .  A
C405        H409   1.084       .  S
C406        C985   1.399       .  A
C406        O410   1.371       .  S
O408        C983   1.373       .  S
O408        H992   0.992       .  S
O410        H411   0.992   1_556  S
H412        O988   0.992       .  S
C413        C414   1.401       .  A
C413        C418   1.414       .  A
C414        C415   1.397   1_655  A
C414        H419   1.084       .  S
C415        C416   1.415       .  A
C415        O420   1.372       .  S
C416        C417   1.403       .  A
C417        C418   1.400   1_455  A
C417        H421   1.084       .  S
C418        O422   1.372       .  S
O420        H424   0.992       .  S
O422        H423   0.992       .  S
C425        C426   1.401       .  A
C425        C430   1.420       .  A
C426        C427   1.402       .  A
C426        H431   1.084       .  S
C427        C428   1.419       .  A
C427        O432   1.372       .  S
C428        C429   1.400       .  A
C429        C430   1.403       .  A
C429        H433   1.084       .  S
C430        O434   1.372       .  S
O432       H1596   0.992       .  S
O434        H435   0.992       .  S
H436       O1592   0.992       .  S
C437        C438   1.398       .  A
C437        C442   1.417       .  A
C438        C439   1.403       .  A
C438        H443   1.084       .  S
C439        C440   1.416       .  A
C439        O444   1.372       .  S
C440        C441   1.398       .  A
C441        C442   1.407       .  A
C441        H445   1.083       .  S
C442        O446   1.373       .  S
O444        H448   0.992       .  S
O446        H447   0.992       .  S
C449        C450   1.403       .  A
C449        C454   1.412       .  A
C450        C451   1.392       .  A
C450        H455   1.084       .  S
C451        C452   1.408       .  A
C451        O456   1.369       .  S
C452        C453   1.408       .  A
C453        C454   1.413       .  A
C453        H457   1.083       .  S
C454        O458   1.371       .  S
O456        H460   0.991       .  S
O458        H459   0.992       .  S
C461        C462   1.396       .  A
C461        C466   1.405       .  A
C462        C463   1.387       .  A
C462        H467   1.080       .  S
C463        C464   1.403       .  A
C463        O468   1.372       .  S
C464        C465   1.399       .  A
C465        C466   1.397       .  A
C465        H469   1.084       .  S
C466        O470   1.369       .  S
O468        H472   0.991       .  S
O470        H471   0.992       .  S
C473        C474   1.403       .  A
C473        C478   1.403       .  A
C474        C475   1.410       .  A
C474        H479   1.081       .  S
C475        C476   1.413       .  A
C475        O480   1.376       .  S
C476        C477   1.408       .  A
C477        C478   1.399       .  A
C477        H481   1.080       .  S
C478        O482   1.371       .  S
O480        H484   0.991       .  S
O482        H483   0.992       .  S
C485        C486   1.399       .  A
C485        C490   1.417       .  A
C486        C487   1.402       .  A
C486        H491   1.084       .  S
C487        C488   1.414       .  A
C487        O492   1.372       .  S
C488        C489   1.397       .  A
C489        C490   1.403       .  A
C489        H493   1.084       .  S
C490        O494   1.372       .  S
O492        H496   0.992       .  S
O494        H495   0.991       .  S
C497        C498   1.400       .  A
C497        C502   1.414       .  A
C498        C499   1.395       .  A
C498        H503   1.084       .  S
C499        C500   1.410       .  A
C499        O504   1.373       .  S
C500        C501   1.399       .  A
C501        C502   1.406       .  A
C501        H505   1.084       .  S
C502        O506   1.372       .  S
O504        H508   0.991       .  S
O506        H507   0.992       .  S
C509        C510   1.401       .  A
C509        C514   1.394       .  A
C510        C511   1.407       .  A
C510        H515   1.084       .  S
C511        C512   1.418       .  A
C511        O516   1.367       .  S
C512        C513   1.415       .  A
C513        C514   1.384       .  A
C513        H517   1.081       .  S
C514        O518   1.373       .  S
O516        H520   0.992       .  S
O518        H519   0.992       .  S
C521        C522   1.400       .  A
C521        C526   1.407       .  A
C522       C1103   1.396   1_554  A
C522        H527   1.083       .  S
C523        C524   1.411       .  A
C523       C1102   1.398       .  A
C523        O528   1.372       .  S
C524       C1105   1.405       .  A
C525        C526   1.399       .  A
C525       C1104   1.404   1_554  A
C525        H529   1.084       .  S
C526        O530   1.372       .  S
O528        H532   0.991       .  S
O530        H531   0.992       .  S
C533        C534   1.400       .  A
C533        C538   1.402       .  A
C534        C535   1.392       .  A
C534        H539   1.083       .  S
C535        C536   1.403       .  A
C535        O540   1.372       .  S
C536        C537   1.401       .  A
C537        C538   1.394       .  A
C537        H541   1.084       .  S
C538        O542   1.373       .  S
O540        H544   0.991       .  S
O542        H543   0.993       .  S
C545        C546   1.413       .  A
C545        C550   1.409       .  A
C546        C547   1.423       .  A
C546        H551   1.083       .  S
C547        C548   1.413       .  A
C547        O552   1.369       .  S
C548        C549   1.405       .  A
C549        C550   1.369       .  A
C549        H553   1.086       .  S
C550        O554   1.375       .  S
O552        H556   0.992       .  S
O554        H555   0.992       .  S
C557        C562   1.411       .  A
C557       C1718   1.389       .  A
C558        C559   1.374       .  A
C558       C1717   1.389   1_545  A
C558        H563   1.080       .  S
C559        C560   1.418       .  A
C559        O564   1.375       .  S
C560        C561   1.412       .  A
C561       C1722   1.419   1_545  A
C561        H565   1.080       .  S
C562       C1721   1.419       .  A
C562        O566   1.370       .  S
O564        H568   0.990       .  S
O566        H567   0.991       .  S
C569        C574   1.415       .  A
C569       C1730   1.405   1_565  A
C569       C1248   1.482       .  S
C570        C571   1.402       .  A
C570       C1729   1.405       .  A
C570        H575   1.084       .  S
C571       C1732   1.406       .  A
C571       O1156   1.371       .  S
C572        C573   1.400   1_545  A
C572       C1731   1.406       .  A
C572        N594   1.437   1_554  S
C573        C574   1.404       .  A
C573        H577   1.083   1_554  S
C574        O578   1.373       .  S
O576       C1151   1.371       .  S
O576        H580   0.992       .  S
O578        H579   0.992       .  S
C581        C583   1.540       .  S
C581        C585   1.549       .  S
C581        C584   1.560       .  S
C581       C1128   1.528       .  S
C582        C586   1.534       .  S
C582        C588   1.540       .  S
C582        C587   1.557       .  S
C582       C1140   1.528       .  S
C583        C591   1.391       .  A
C583        C586   1.369       .  A
C584        C595   1.379       .  A
C584        C587   1.438       .  A
C585        C599   1.399       .  A
C585        C588   1.369       .  A
C586        C589   1.386       .  A
C587        C593   1.384       .  A
C588        C596   1.383       .  A
C589        N590   1.357       .  A
C589        H602   1.083       .  S
N590        C591   1.361       .  A
N590        C712   1.440       .  S
C591        H592   1.083       .  S
C593        N594   1.355       .  A
C593        H603   1.081       .  S
N594        C595   1.355       .  A
C595        H601   1.079   1_556  S
C596        N597   1.364       .  A
C596       H1758   1.083   1_545  S
N597        C599   1.358       .  A
N597       C1852   1.452   1_545  S
H598       C1756   1.083       .  S
C599        H600   1.082       .  S
Fe604       O620   2.037       .  S
Fe604       O610   2.083       .  S
Fe604       O617   2.025       .  S
Fe604       O609   2.038       .  S
Fe604       O615   1.893       .  S
Fe605       O608   2.048       .  S
Fe605       O612   2.099       .  S
Fe605       O616   2.100       .  S
Fe605       O621   2.098       .  S
Fe605       O615   1.931       .  S
Fe606       O624   2.089       .  S
Fe606       O611   2.044       .  S
Fe606       O618   2.030       .  S
Fe606       O607   2.135       .  S
Fe606       O615   1.964       .  S
O607        C614   1.269       .  A
O608        C622   1.270       .  A
O609        C614   1.250       .  A
O610        C613   1.272       .  A
O611        C623   1.270       .  A
O612        C625   1.278       .  A
C613        O618   1.260       .  A
C613       C1113   1.447       .  S
C614       C1125   1.484       .  S
O616        C619   1.275       .  A
O617        C619   1.259       .  A
C619       C1065   1.472       .  S
O620        C625   1.271       .  A
O621        C623   1.279       .  A
C622        O624   1.275       .  A
C622       C1077   1.477       .  S
C623       C1104   1.472       .  S
C625       C1089   1.459       .  S
C626        C628   1.565       .  S
C626        C630   1.560       .  S
C626        C629   1.540       .  S
C626       C1056   1.541       .  S
C627        C631   1.542       .  S
C627        C633   1.534       .  S
C627        C632   1.544       .  S
C627       C1092   1.535       .  S
C628        C636   1.400       .  A
C628        C631   1.389       .  A
C629        C640   1.370       .  A
C629        C632   1.404       .  A
C630        C644   1.404       .  A
C630        C633   1.390       .  A
C631        C634   1.380       .  A
C632        C638   1.384       .  A
C633        C641   1.379       .  A
C634        N635   1.349       .  A
C634        H647   1.082       .  S
N635        C636   1.367       .  A
N635        C690   1.441       .  S
C636        H637   1.081       .  S
C638        N639   1.358       .  A
C638        H648   1.079       .  S
N639        C640   1.356       .  A
N639       C1101   1.434       .  S
C640        H646   1.083       .  S
C641        N642   1.354       .  A
C641        H643   1.083       .  S
N642        C644   1.358       .  A
N642        C714   1.447       .  S
C644        H645   1.079       .  S
Fe649       O665   2.020       .  S
Fe649       O655   2.086       .  S
Fe649       O662   2.042       .  S
Fe649       O654   2.043       .  S
Fe649       O660   1.907       .  S
Fe650      O1813   2.059       .  S
Fe650       O657   2.115       .  S
Fe650       O661   2.101       .  S
Fe650       O666   2.128       .  S
Fe650       O660   1.951       .  S
Fe651       O669   2.086   1_565  S
Fe651      O1816   2.036       .  S
Fe651       O663   2.038   1_565  S
Fe651      O1812   2.109       .  S
Fe651      O1820   1.953       .  S
O652      Fe1811   2.108       .  S
O652        C659   1.274       .  A
O653      Fe1810   2.058   1_545  S
O653        C667   1.269       .  A
O654        C659   1.263       .  A
O655        C658   1.276       .  A
O656      Fe1811   2.036       .  S
O656        C668   1.267       .  A
O657        C670   1.276       .  A
C658       O1823   1.262       .  A
C658       C1041   1.453       .  S
C659       C1053   1.475       .  S
O660      Fe1811   1.953       .  S
O661        C664   1.280       .  A
O662        C664   1.267       .  A
O663       C1818   1.262   1_545  A
C664       C1017   1.475       .  S
O665        C670   1.269       .  A
O666        C668   1.285       .  A
C667        O669   1.270       .  A
C667       C1029   1.488       .  S
C668       C2309   1.482       .  S
C670       C1137   1.475       .  S
Fe671       O687   2.144       .  S
Fe671      O1837   2.027       .  S
Fe671       O684   2.037       .  S
Fe671       O676   2.139       .  S
Fe671       O682   1.935       .  S
Fe672       O675   2.092       .  S
Fe672       O679   2.029       .  S
Fe672       O683   2.091       .  S
Fe672       O688   2.038       .  S
Fe672       O682   1.938       .  S
Fe673      O1851   2.030       .  S
Fe673       O678   2.135       .  S
Fe673      O1845   2.119       .  S
Fe673       O674   2.038       .  S
Fe673       O682   1.956       .  S
O674        C681   1.273       .  A
O675        C689   1.282       .  A
O676        C681   1.291       .  A
O677      Fe1831   2.028   1_545  S
O677        C680   1.260       .  A
O678        C690   1.275       .  A
O679        C692   1.262       .  A
C680        O685   1.273       .  A
C680       C1068   1.479       .  S
C681       C1005   1.494       .  S
O683        C686   1.274       .  A
O684        C686   1.263       .  A
O685      Fe1833   2.120   1_545  S
C686       C1080   1.471       .  S
O687        C692   1.285       .  A
O688        C690   1.259       .  A
C689       O1851   1.268       .  A
C689       C1044   1.446       .  S
O691      Fe1833   2.030   1_545  S
O691       C1849   1.268   1_545  A
C692       N1757   1.452       .  S
Fe693       O709   2.118       .  S
Fe693       O699   2.022       .  S
Fe693       O706   2.057       .  S
Fe693       O698   2.105       .  S
Fe693       O704   1.939       .  S
Fe694       O697   2.075       .  S
Fe694       O701   2.037       .  S
Fe694       O705   2.087       .  S
Fe694       O710   2.031       .  S
Fe694       O704   1.934       .  S
Fe695       O713   2.039       .  S
Fe695       O700   2.142       .  S
Fe695       O707   2.136       .  S
Fe695       O696   2.043       .  S
Fe695       O704   1.960       .  S
O696        C703   1.272       .  A
O697        C711   1.277       .  A
O698        C703   1.284       .  A
O699        C702   1.259       .  A
O700        C712   1.279       .  A
O701        C714   1.263       .  A
C702        O707   1.278       .  A
C702       C1020   1.483       .  S
C703        C993   1.481       .  S
O705        C708   1.275       .  A
O706        C708   1.266       .  A
C708       C1032   1.483       .  S
O709        C714   1.278       .  A
O710        C712   1.257       .  A
C711        O713   1.268       .  A
C711       C1116   1.448       .  S
C715        C717   1.561       .  S
C715        C719   1.565       .  S
C715        C718   1.552       .  S
C715        C960   1.543       .  S
C716        C720   1.529       .  S
C716        C722   1.533       .  S
C716        C721   1.538       .  S
C716        C969   1.530       .  S
C717        C725   1.400       .  A
C717        C720   1.386       .  A
C718        C729   1.370       .  A
C718        C721   1.416       .  A
C719        C733   1.410       .  A
C719        C722   1.379       .  A
C720        C723   1.376       .  A
C721        C727   1.382       .  A
C722        C730   1.372       .  A
C723        N724   1.349       .  A
C723        H736   1.083       .  S
N724        C725   1.365       .  A
N724        C824   1.437       .  S
C725        H726   1.081       .  S
C727        N728   1.359       .  A
C727        H737   1.081       .  S
N728        C729   1.358       .  A
N728        C981   1.435       .  S
C729        H735   1.083       .  S
C730        N731   1.353       .  A
C730       H1892   1.083       .  S
N731        C733   1.361       .  A
N731       C2008   1.446       .  S
H732       C1890   1.083       .  S
C733        H734   1.080       .  S
Fe738       O754   2.051       .  S
Fe738       O744   2.076       .  S
Fe738       O751   2.058       .  S
Fe738       O743   2.058       .  S
Fe738       O749   1.915       .  S
Fe739       O742   2.046       .  S
Fe739       O746   2.111       .  S
Fe739       O750   2.087       .  S
Fe739       O755   2.120       .  S
Fe739       O749   1.955       .  S
Fe740       O758   2.080       .  S
Fe740       O745   2.045       .  S
Fe740       O752   2.041       .  S
Fe740       O741   2.095       .  S
Fe740       O749   1.957       .  S
O741        C748   1.271       .  A
O742        C756   1.268       .  A
O743        C748   1.267       .  A
O744        C747   1.275       .  A
O745        C757   1.266       .  A
O746        C759   1.277       .  A
C747        O752   1.264       .  A
C747        C948   1.452       .  S
C748        C957   1.475       .  S
O750        C753   1.279       .  A
O751        C753   1.272       .  A
C753        C900   1.471       .  S
O754        C759   1.269       .  A
O755        C757   1.281       .  A
C756        O758   1.269       .  A
C756        C909   1.474       .  S
C757        C933   1.483       .  S
C759        C924   1.486       .  S
C760        C762   1.565       .  S
C760        C764   1.556       .  S
C760        C763   1.536       .  S
C760        C888   1.544       .  S
C761        C765   1.553       .  S
C761        C767   1.547       .  S
C761        C766   1.538       .  S
C761        C921   1.547       .  S
C762        C770   1.397       .  A
C762        C765   1.402       .  A
C763        C774   1.375       .  A
C763        C766   1.397       .  A
C764        C778   1.399       .  A
C764        C767   1.393       .  A
C765        C768   1.389       .  A
C766        C772   1.382       .  A
C767        C775   1.379       .  A
C768        N769   1.353       .  A
C768        H781   1.080       .  S
N769        C770   1.361       .  A
N769        C846   1.443       .  S
C770        H771   1.081       .  S
C772        N773   1.360       .  A
C772        H782   1.082       .  S
N773        C774   1.359       .  A
C774        H780   1.083       .  S
C775        N776   1.357       .  A
C775        H777   1.080       .  S
N776        C778   1.357       .  A
N776        C826   1.446       .  S
C778        H779   1.080       .  S
Fe783       O799   2.022       .  S
Fe783       O789   2.100       .  S
Fe783       O796   2.051       .  S
Fe783       O788   2.046       .  S
Fe783       O794   1.912       .  S
Fe784      O1947   2.051       .  S
Fe784       O791   2.119       .  S
Fe784       O795   2.085       .  S
Fe784       O800   2.112       .  S
Fe784       O794   1.956       .  S
Fe785       O803   2.095   1_565  S
Fe785      O1950   2.049       .  S
Fe785       O797   2.045   1_565  S
Fe785      O1946   2.125       .  S
Fe785      O1954   1.955       .  S
O786      Fe1945   2.124       .  S
O786        C793   1.277       .  A
O787      Fe1944   2.052   1_545  S
O787        C801   1.269       .  A
O788        C793   1.261       .  A
O789        C792   1.278       .  A
O790      Fe1945   2.048       .  S
O790        C802   1.270       .  A
O791        C804   1.277       .  A
C792       O1957   1.262       .  A
C792        C876   1.464       .  S
C793        C885   1.483       .  S
O794      Fe1945   1.955       .  S
O795        C798   1.276       .  A
O796        C798   1.269       .  A
O797       C1952   1.262       .  A
C798        C849   1.472       .  S
O799        C804   1.268       .  A
O800        C802   1.281       .  A
C801        O803   1.273       .  A
C801        C861   1.488       .  S
C802       C2144   1.477       .  S
C804        C972   1.482       .  S
Fe805       O821   2.124       .  S
Fe805       O811   2.017       .  S
Fe805       O818   2.048       .  S
Fe805       O810   2.113       .  S
Fe805       O816   1.945       .  S
Fe806       O809   2.088       .  S
Fe806       O813   2.029       .  S
Fe806       O817   2.087       .  S
Fe806       O822   2.028       .  S
Fe806       O816   1.932       .  S
Fe807       O825   2.032       .  S
Fe807       O812   2.134       .  S
Fe807       O819   2.118       .  S
Fe807       O808   2.040       .  S
Fe807       O816   1.960       .  S
O808        C815   1.273       .  A
O809        C823   1.281       .  A
O810        C815   1.285       .  A
O811        C814   1.258       .  A
O812        C824   1.276       .  A
O813        C826   1.262       .  A
C814        O819   1.274       .  A
C814        C852   1.472       .  S
C815        C996   1.483       .  S
O817        C820   1.275       .  A
O818        C820   1.263       .  A
C820        C864   1.484       .  S
O821        C826   1.280       .  A
O822        C824   1.255       .  A
C823        O825   1.267       .  A
C823        C945   1.449       .  S
Fe827       O843   2.127       .  S
Fe827      O1993   2.013       .  S
Fe827       O840   2.040       .  S
Fe827       O832   2.130       .  S
Fe827       O838   1.954       .  S
Fe828       O831   2.084       .  S
Fe828       O835   2.024       .  S
Fe828       O839   2.080       .  S
Fe828       O844   2.045       .  S
Fe828       O838   1.938       .  S
Fe829       O847   2.035       .  S
Fe829       O834   2.132       .  S
Fe829      O2001   2.127       .  S
Fe829       O830   2.036       .  S
Fe829       O838   1.959       .  S
O830        C837   1.269       .  A
O831        C845   1.279       .  A
O832        C837   1.287       .  A
O833      Fe1987   2.013   1_545  S
O833        C836   1.258       .  A
O834        C846   1.278       .  A
O835        C848   1.262       .  A
C836        O841   1.277       .  A
C836        C897   1.476       .  S
C837       C1008   1.490       .  S
O839        C842   1.275       .  A
O840        C842   1.264       .  A
O841      Fe1989   2.128   1_545  S
C842        C912   1.469       .  S
O843        C848   1.279       .  A
O844        C846   1.260       .  A
C845        O847   1.266       .  A
C845        C873   1.453       .  S
C848       N1891   1.446       .  S
C849        C850   1.398       .  A
C849        C854   1.414       .  A
C850        C851   1.402       .  A
C850        H855   1.084       .  S
C851        C852   1.414       .  A
C851        O856   1.372       .  S
C852        C853   1.396       .  A
C853        C854   1.401       .  A
C853        H857   1.084       .  S
C854        O858   1.373       .  S
O856        H860   0.992       .  S
O858        H859   0.992       .  S
C861        C862   1.406       .  A
C861        C866   1.412       .  A
C862        C863   1.413       .  A
C862        H867   1.083       .  S
C863        C864   1.416       .  A
C863        O868   1.371       .  S
C864        C865   1.398       .  A
C865        C866   1.391       .  A
C865        H869   1.084       .  S
C866        O870   1.367       .  S
O868        H872   0.991       .  S
O870        H871   0.990       .  S
C873        C874   1.400       .  A
C873       C2038   1.399       .  A
C874        C875   1.395       .  A
C874        H879   1.084       .  S
C875        C876   1.403       .  A
C875        O880   1.368       .  S
C876       C2037   1.399       .  A
C877       C2036   1.399       .  A
C877        C878   1.394       .  A
C877        H881   1.077       .  S
C878       C2033   1.400       .  A
C878        O882   1.370       .  S
O880        H884   0.991       .  S
O882        H883   0.992       .  S
C885        C886   1.403       .  A
C885        C890   1.405       .  A
C886        C887   1.407       .  A
C886        H891   1.083       .  S
C887        C888   1.417       .  A
C887        O892   1.371       .  S
C888        C889   1.405       .  A
C889        C890   1.402       .  A
C889        H893   1.080       .  S
C890        O894   1.364       .  S
O892        H896   0.991       .  S
O894        H895   0.992       .  S
C897        C898   1.397       .  A
C897        C902   1.416       .  A
C898        C899   1.402       .  A
C898        H903   1.083       .  S
C899        C900   1.415       .  A
C899        O904   1.372       .  S
C900        C901   1.397       .  A
C901        C902   1.400       .  A
C901        H905   1.084       .  S
C902        O906   1.373       .  S
O904        H908   0.991       .  S
O906        H907   0.992       .  S
C909        C910   1.405       .  A
C909        C914   1.408       .  A
C910        C911   1.407       .  A
C910        H915   1.083       .  S
C911        C912   1.412       .  A
C911        O916   1.371       .  S
C912        C913   1.395       .  A
C913        C914   1.390       .  A
C913        H917   1.085       .  S
C914        O918   1.372       .  S
O916        H920   0.991       .  S
O918        H919   0.991       .  S
C921        C922   1.411       .  A
C921        C926   1.412       .  A
C922        C923   1.406       .  A
C922        H927   1.079       .  S
C923        C924   1.406       .  A
C923        O928   1.371       .  S
C924        C925   1.405       .  A
C925        C926   1.410       .  A
C925        H929   1.084       .  S
C926        O930   1.378       .  S
O928        H932   0.991       .  S
O930        H931   0.992       .  S
C933        C934   1.406       .  A
C933        C938   1.411       .  A
C934        C935   1.401       .  A
C934        H939   1.084       .  S
C935        C936   1.407       .  A
C935        O940   1.371       .  S
C936        C937   1.403       .  A
C937        C938   1.405       .  A
C937        H941   1.083       .  S
C938        O942   1.372       .  S
O940        H944   0.992       .  S
O942        H943   0.992       .  S
C945        C946   1.396       .  A
C945        C950   1.404       .  A
C946        C947   1.392       .  A
C946        H951   1.084       .  S
C947        C948   1.404       .  A
C947        O952   1.370       .  S
C948        C949   1.400       .  A
C949        C950   1.394       .  A
C949        H953   1.083       .  S
C950        O954   1.372       .  S
O952        H956   0.993       .  S
O954        H955   0.991       .  S
C957        C958   1.405       .  A
C957        C962   1.403       .  A
C958        C959   1.405       .  A
C958        H963   1.082       .  S
C959        C960   1.411       .  A
C959        O964   1.371       .  S
C960        C961   1.409       .  A
C961        C962   1.401       .  A
C961        H965   1.080       .  S
C962        O966   1.371       .  S
O964        H968   0.992       .  S
O966        H967   0.991       .  S
C969       C2130   1.412       .  A
C969        C974   1.416       .  A
C970       C2129   1.412       .  A
C970        C971   1.422       .  A
C970        H975   1.080       .  S
C971        C972   1.414       .  A
C971        O976   1.370       .  S
C972       C2133   1.391       .  A
C973       C2132   1.391       .  A
C973        C974   1.372       .  A
C973        H977   1.078       .  S
C974        O978   1.374       .  S
O976        H980   0.992       .  S
O978        H979   0.992       .  S
C981       C2142   1.402   1_545  A
C981        C986   1.406       .  A
C982       C2141   1.402       .  A
C982        C983   1.404       .  A
C982        H987   1.083       .  S
C983       C1564   1.411       .  A
C984       C1563   1.410   1_556  A
C984        C985   1.405   1_565  A
C984       C1962   1.478       .  S
C985        H989   1.084       .  S
C986        O990   1.371       .  S
O990        H991   0.992       .  S
C993        C994   1.401       .  A
C993        C998   1.415       .  A
C994        C995   1.397   1_655  A
C994        H999   1.084       .  S
C995        C996   1.415       .  A
C995       O1000   1.372       .  S
C996        C997   1.403       .  A
C997        C998   1.401   1_455  A
C997       H1001   1.084       .  S
C998       O1002   1.372       .  S
O1000      H1004   0.992       .  S
O1002      H1003   0.992       .  S
C1005      C1006   1.402       .  A
C1005      C1010   1.420       .  A
C1006      C1007   1.402       .  A
C1006      H1011   1.084       .  S
C1007      C1008   1.419       .  A
C1007      O1012   1.372       .  S
C1008      C1009   1.400       .  A
C1009      C1010   1.403       .  A
C1009      H1013   1.084       .  S
C1010      O1014   1.372       .  S
O1012      H2176   0.992       .  S
O1014      H1015   0.992       .  S
H1016      O2172   0.992       .  S
C1017      C1018   1.398       .  A
C1017      C1022   1.416       .  A
C1018      C1019   1.402       .  A
C1018      H1023   1.084       .  S
C1019      C1020   1.415       .  A
C1019      O1024   1.372       .  S
C1020      C1021   1.399       .  A
C1021      C1022   1.407       .  A
C1021      H1025   1.083       .  S
C1022      O1026   1.373       .  S
O1024      H1028   0.992       .  S
O1026      H1027   0.992       .  S
C1029      C1030   1.403       .  A
C1029      C1034   1.413       .  A
C1030      C1031   1.392       .  A
C1030      H1035   1.084       .  S
C1031      C1032   1.407       .  A
C1031      O1036   1.369       .  S
C1032      C1033   1.408       .  A
C1033      C1034   1.414       .  A
C1033      H1037   1.083       .  S
C1034      O1038   1.371       .  S
O1036      H1040   0.991       .  S
O1038      H1039   0.992       .  S
C1041      C1042   1.396       .  A
C1041      C1046   1.404       .  A
C1042      C1043   1.388       .  A
C1042      H1047   1.080       .  S
C1043      C1044   1.403       .  A
C1043      O1048   1.372       .  S
C1044      C1045   1.398       .  A
C1045      C1046   1.397       .  A
C1045      H1049   1.084       .  S
C1046      O1050   1.369       .  S
O1048      H1052   0.991       .  S
O1050      H1051   0.991       .  S
C1053      C1054   1.403       .  A
C1053      C1058   1.404       .  A
C1054      C1055   1.411       .  A
C1054      H1059   1.081       .  S
C1055      C1056   1.413       .  A
C1055      O1060   1.376       .  S
C1056      C1057   1.408       .  A
C1057      C1058   1.399       .  A
C1057      H1061   1.080       .  S
C1058      O1062   1.371       .  S
O1060      H1064   0.991       .  S
O1062      H1063   0.992       .  S
C1065      C1066   1.399       .  A
C1065      C1070   1.417       .  A
C1066      C1067   1.402       .  A
C1066      H1071   1.084       .  S
C1067      C1068   1.414       .  A
C1067      O1072   1.371       .  S
C1068      C1069   1.398       .  A
C1069      C1070   1.403       .  A
C1069      H1073   1.084       .  S
C1070      O1074   1.372       .  S
O1072      H1076   0.992       .  S
O1074      H1075   0.991       .  S
C1077      C1078   1.401       .  A
C1077      C1082   1.414       .  A
C1078      C1079   1.395       .  A
C1078      H1083   1.084       .  S
C1079      C1080   1.409       .  A
C1079      O1084   1.373       .  S
C1080      C1081   1.399       .  A
C1081      C1082   1.407       .  A
C1081      H1085   1.084       .  S
C1082      O1086   1.372       .  S
O1084      H1088   0.991       .  S
O1086      H1087   0.992       .  S
C1089      C1090   1.401       .  A
C1089      C1094   1.393       .  A
C1090      C1091   1.408       .  A
C1090      H1095   1.083       .  S
C1091      C1092   1.418       .  A
C1091      O1096   1.367       .  S
C1092      C1093   1.415       .  A
C1093      C1094   1.385       .  A
C1093      H1097   1.081       .  S
C1094      O1098   1.374       .  S
O1096      H1100   0.992       .  S
O1098      H1099   0.992       .  S
C1101      C1102   1.400       .  A
C1101      C1106   1.407       .  A
C1102      H1107   1.083       .  S
C1103      C1104   1.412       .  A
C1103      O1108   1.372       .  S
C1105      C1106   1.400       .  A
C1105      H1109   1.084       .  S
C1106      O1110   1.371       .  S
O1108      H1112   0.991       .  S
O1110      H1111   0.992       .  S
C1113      C1114   1.401       .  A
C1113      C1118   1.402       .  A
C1114      C1115   1.393       .  A
C1114      H1119   1.084       .  S
C1115      C1116   1.404       .  A
C1115      O1120   1.373       .  S
C1116      C1117   1.400       .  A
C1117      C1118   1.393       .  A
C1117      H1121   1.084       .  S
C1118      O1122   1.373       .  S
O1120      H1124   0.992       .  S
O1122      H1123   0.992       .  S
C1125      C1126   1.413       .  A
C1125      C1130   1.409       .  A
C1126      C1127   1.423       .  A
C1126      H1131   1.083       .  S
C1127      C1128   1.413       .  A
C1127      O1132   1.369       .  S
C1128      C1129   1.404       .  A
C1129      C1130   1.369       .  A
C1129      H1133   1.085       .  S
C1130      O1134   1.374       .  S
O1132      H1136   0.992   1_556  S
O1134      H1135   0.992       .  S
C1137      C2298   1.389       .  A
C1137      C1142   1.412       .  A
C1138      C2297   1.389   1_545  A
C1138      C1139   1.375       .  A
C1138      H1143   1.080       .  S
C1139      C1140   1.418       .  A
C1139      O1144   1.375       .  S
C1140      C1141   1.413       .  A
C1141      C2302   1.420   1_545  A
C1141      H1145   1.080       .  S
C1142      C2301   1.421       .  A
C1142      O1146   1.370       .  S
O1144      H1148   0.990       .  S
O1146      H1147   0.992       .  S
C1149      C2310   1.405   1_565  A
C1149      C1154   1.414       .  A
C1149      C1828   1.481       .  S
C1150      C2309   1.405       .  A
C1150      C1151   1.400       .  A
C1150      H1155   1.084       .  S
C1151      C2312   1.406       .  A
C1152      C2311   1.406       .  A
C1152      C1153   1.401   1_545  A
C1153      C1154   1.404       .  A
C1153      H1157   1.083       .  S
C1154      O1158   1.373       .  S
O1156      H1160   0.992       .  S
O1158      H1159   0.992       .  S
C1161      C1163   1.541       .  S
C1161      C1165   1.548       .  S
C1161      C1164   1.561       .  S
C1161      C1708   1.529       .  S
C1162      C1166   1.533       .  S
C1162      C1168   1.539       .  S
C1162      C1167   1.556       .  S
C1162      C1720   1.527       .  S
C1163      C1171   1.391       .  A
C1163      C1166   1.368       .  A
C1164      C1175   1.378       .  A
C1164      C1167   1.439       .  A
C1165      C1179   1.399       .  A
C1165      C1168   1.368       .  A
C1166      C1169   1.386       .  A
C1167      C1173   1.384       .  A
C1168      C1176   1.382       .  A
C1169      N1170   1.358       .  A
C1169      H1182   1.083       .  S
N1170      C1171   1.361       .  A
N1170      C1292   1.440       .  S
C1171      H1172   1.083       .  S
C1173      N1174   1.354       .  A
C1173      H1183   1.081       .  S
N1174      C1175   1.355       .  A
N1174      C2312   1.436       .  S
C1175      H1181   1.079       .  S
C1176      N1177   1.364       .  A
N1177      C1179   1.358       .  A
C1179      H1180   1.082       .  S
Fe1184     O1200   2.034       .  S
Fe1184     O1190   2.083       .  S
Fe1184     O1197   2.027       .  S
Fe1184     O1189   2.037       .  S
Fe1184     O1195   1.895       .  S
Fe1185     O1188   2.049       .  S
Fe1185     O1192   2.100       .  S
Fe1185     O1196   2.099       .  S
Fe1185     O1201   2.102       .  S
Fe1185     O1195   1.932       .  S
Fe1186     O1204   2.090       .  S
Fe1186     O1191   2.045       .  S
Fe1186     O1198   2.029       .  S
Fe1186     O1187   2.134       .  S
Fe1186     O1195   1.962       .  S
O1187      C1194   1.270       .  A
O1188      C1202   1.270       .  A
O1189      C1194   1.251       .  A
O1190      C1193   1.271       .  A
O1191      C1203   1.270       .  A
O1192      C1205   1.278       .  A
C1193      O1198   1.260       .  A
C1193      C1693   1.448       .  S
C1194      C1705   1.483       .  S
O1196      C1199   1.275       .  A
O1197      C1199   1.260       .  A
C1199      C1645   1.471       .  S
O1200      C1205   1.271       .  A
O1201      C1203   1.280       .  A
C1202      O1204   1.275       .  A
C1202      C1657   1.477       .  S
C1203      C1684   1.475       .  S
C1205      C1669   1.458       .  S
C1206      C1208   1.565       .  S
C1206      C1210   1.559       .  S
C1206      C1209   1.540       .  S
C1206      C1636   1.541       .  S
C1207      C1211   1.541       .  S
C1207      C1213   1.534       .  S
C1207      C1212   1.543       .  S
C1207      C1672   1.533       .  S
C1208      C1216   1.400       .  A
C1208      C1211   1.389       .  A
C1209      C1220   1.369       .  A
C1209      C1212   1.404       .  A
C1210      C1224   1.403       .  A
C1210      C1213   1.389       .  A
C1211      C1214   1.380       .  A
C1212      C1218   1.383       .  A
C1213      C1221   1.379       .  A
C1214      N1215   1.349       .  A
C1214      H1227   1.082       .  S
N1215      C1216   1.366       .  A
N1215      C1270   1.440       .  S
C1216      H1217   1.081       .  S
C1218      N1219   1.358       .  A
C1218      H1228   1.079       .  S
N1219      C1220   1.356       .  A
N1219      C1681   1.433       .  S
C1220      H1226   1.083       .  S
C1221      N1222   1.355       .  A
C1221      H1223   1.083       .  S
N1222      C1224   1.359       .  A
N1222      C1294   1.447       .  S
C1224      H1225   1.079       .  S
Fe1229     O1245   2.015       .  S
Fe1229     O1235   2.088       .  S
Fe1229     O1242   2.042       .  S
Fe1229     O1234   2.042       .  S
Fe1229     O1240   1.906       .  S
Fe1230     O1237   2.113       .  S
Fe1230     O1241   2.102       .  S
Fe1230     O1246   2.131       .  S
Fe1230     O1240   1.950       .  S
Fe1231     O1249   2.088       .  S
Fe1231     O1243   2.036       .  S
O1232      C1239   1.274       .  A
O1233      C1247   1.269       .  A
O1234      C1239   1.262       .  A
O1235      C1238   1.276       .  A
O1236      C1248   1.266       .  A
O1237      C1250   1.276       .  A
C1238      C1621   1.453   1_565  S
C1239      C1633   1.475       .  S
O1241      C1244   1.280       .  A
O1242      C1244   1.266       .  A
C1244      C1597   1.476       .  S
O1245      C1250   1.268       .  A
O1246      C1248   1.286       .  A
C1247      O1249   1.270       .  A
C1247      C1609   1.489       .  S
C1250      C1717   1.472       .  S
Fe1251     O1267   2.145   1_565  S
Fe1251     O1264   2.037       .  S
Fe1251     O1256   2.136       .  S
Fe1251     O1262   1.934       .  S
Fe1252     O1255   2.093       .  S
Fe1252     O1259   2.028       .  S
Fe1252     O1263   2.090       .  S
Fe1252     O1268   2.035       .  S
Fe1252     O1262   1.936       .  S
Fe1253     O1258   2.135       .  S
Fe1253     O1254   2.037       .  S
Fe1253     O1262   1.955       .  S
O1254      C1261   1.272       .  A
O1255      C1269   1.282       .  A
O1256      C1261   1.291       .  A
O1257      C1260   1.260       .  A
O1258      C1270   1.275       .  A
O1259      C1272   1.262       .  A
C1260      O1265   1.273       .  A
C1260      C1648   1.478       .  S
C1261      C1585   1.492       .  S
O1263      C1266   1.273       .  A
O1264      C1266   1.262       .  A
C1266      C1660   1.473       .  S
O1267      C1272   1.286   1_545  A
O1268      C1270   1.258       .  A
C1269      C1624   1.447   1_565  S
Fe1273     O1289   2.118       .  S
Fe1273     O1279   2.023       .  S
Fe1273     O1286   2.056       .  S
Fe1273     O1278   2.105       .  S
Fe1273     O1284   1.942       .  S
Fe1274     O1277   2.074       .  S
Fe1274     O1281   2.038       .  S
Fe1274     O1285   2.087       .  S
Fe1274     O1290   2.030       .  S
Fe1274     O1284   1.935       .  S
Fe1275     O1293   2.040       .  S
Fe1275     O1280   2.142       .  S
Fe1275     O1287   2.136       .  S
Fe1275     O1276   2.043       .  S
Fe1275     O1284   1.961       .  S
O1276      C1283   1.271       .  A
O1277      C1291   1.277       .  A
O1278      C1283   1.283       .  A
O1279      C1282   1.259       .  A
O1280      C1292   1.279       .  A
O1281      C1294   1.263       .  A
C1282      O1287   1.278       .  A
C1282      C1600   1.483       .  S
C1283      C1573   1.481       .  S
O1285      C1288   1.275       .  A
O1286      C1288   1.265       .  A
C1288      C1612   1.484       .  S
O1289      C1294   1.278       .  A
O1290      C1292   1.257       .  A
C1291      O1293   1.268       .  A
C1291      C1696   1.449       .  S
C1295      C1297   1.562       .  S
C1295      C1299   1.565       .  S
C1295      C1298   1.551       .  S
C1295      C1540   1.543       .  S
C1296      C1300   1.531       .  S
C1296      C1302   1.533       .  S
C1296      C1301   1.539       .  S
C1296      C1549   1.531       .  S
C1297      C1305   1.400       .  A
C1297      C1300   1.386       .  A
C1298      C1309   1.370       .  A
C1298      C1301   1.414       .  A
C1299      C1313   1.410       .  A
C1299      C1302   1.379       .  A
C1300      C1303   1.377       .  A
C1301      C1307   1.382       .  A
C1302      C1310   1.373       .  A
C1303      N1304   1.350       .  A
C1303      H1316   1.083       .  S
N1304      C1305   1.366       .  A
N1304      C1404   1.438       .  S
C1305      H1306   1.081       .  S
C1307      N1308   1.360       .  A
C1307      H1317   1.081       .  S
N1308      C1309   1.358       .  A
N1308      C1561   1.436       .  S
C1309      H1315   1.083       .  S
C1310      N1311   1.353       .  A
N1311      C1313   1.362       .  A
C1313      H1314   1.080       .  S
Fe1318     O1334   2.050       .  S
Fe1318     O1324   2.075       .  S
Fe1318     O1331   2.056       .  S
Fe1318     O1323   2.059       .  S
Fe1318     O1329   1.917       .  S
Fe1319     O1322   2.047       .  S
Fe1319     O1326   2.108       .  S
Fe1319     O1330   2.088       .  S
Fe1319     O1335   2.120       .  S
Fe1319     O1329   1.954       .  S
Fe1320     O1338   2.080       .  S
Fe1320     O1325   2.045       .  S
Fe1320     O1332   2.040       .  S
Fe1320     O1321   2.096       .  S
Fe1320     O1329   1.957       .  S
O1321      C1328   1.271       .  A
O1322      C1336   1.268       .  A
O1323      C1328   1.267       .  A
O1324      C1327   1.275       .  A
O1325      C1337   1.267       .  A
O1326      C1339   1.276       .  A
C1327      O1332   1.264       .  A
C1327      C1528   1.451       .  S
C1328      C1537   1.476       .  S
O1330      C1333   1.279       .  A
O1331      C1333   1.271       .  A
C1333      C1480   1.472       .  S
O1334      C1339   1.268       .  A
O1335      C1337   1.281       .  A
C1336      O1338   1.269       .  A
C1336      C1489   1.475       .  S
C1337      C1513   1.482       .  S
C1339      C1504   1.485       .  S
C1340      C1342   1.565       .  S
C1340      C1344   1.556       .  S
C1340      C1343   1.535       .  S
C1340      C1468   1.543       .  S
C1341      C1345   1.554       .  S
C1341      C1347   1.547       .  S
C1341      C1346   1.539       .  S
C1341      C1501   1.546       .  S
C1342      C1350   1.397       .  A
C1342      C1345   1.402       .  A
C1343      C1354   1.375       .  A
C1343      C1346   1.396       .  A
C1344      C1358   1.400       .  A
C1344      C1347   1.393       .  A
C1345      C1348   1.391       .  A
C1346      C1352   1.383       .  A
C1347      C1355   1.378       .  A
C1348      N1349   1.354       .  A
C1348      H1361   1.080       .  S
N1349      C1350   1.360       .  A
N1349      C1426   1.443       .  S
C1350      H1351   1.081       .  S
C1352      N1353   1.360       .  A
C1352      H1362   1.082       .  S
N1353      C1354   1.359       .  A
N1353      C2096   1.440       .  S
C1354      H1360   1.083       .  S
C1355      N1356   1.357       .  A
C1355      H1357   1.080       .  S
N1356      C1358   1.357       .  A
N1356      C1406   1.447       .  S
C1358      H1359   1.080       .  S
Fe1363     O1379   2.022       .  S
Fe1363     O1369   2.103       .  S
Fe1363     O1376   2.053       .  S
Fe1363     O1368   2.047       .  S
Fe1363     O1374   1.914       .  S
Fe1364     O1371   2.121       .  S
Fe1364     O1375   2.089       .  S
Fe1364     O1380   2.113       .  S
Fe1364     O1374   1.956       .  S
Fe1365     O1383   2.094       .  S
Fe1365     O1377   2.044       .  S
O1366      C1373   1.276       .  A
O1367      C1381   1.270       .  A
O1368      C1373   1.261       .  A
O1369      C1372   1.279   1_565  A
O1370      C1382   1.270       .  A
O1371      C1384   1.277       .  A
C1372      C1456   1.465       .  S
C1373      C1465   1.482       .  S
O1375      C1378   1.276       .  A
O1376      C1378   1.269       .  A
C1378      C1429   1.474       .  S
O1379      C1384   1.268       .  A
O1380      C1382   1.282       .  A
C1381      O1383   1.272       .  A
C1381      C1441   1.489       .  S
C1384      C1552   1.482   1_565  S
Fe1385     O1401   2.125       .  S
Fe1385     O1391   2.019       .  S
Fe1385     O1398   2.052       .  S
Fe1385     O1390   2.113       .  S
Fe1385     O1396   1.946       .  S
Fe1386     O1389   2.085       .  S
Fe1386     O1393   2.028       .  S
Fe1386     O1397   2.087       .  S
Fe1386     O1402   2.030       .  S
Fe1386     O1396   1.933       .  S
Fe1387     O1405   2.031       .  S
Fe1387     O1392   2.136       .  S
Fe1387     O1399   2.123       .  S
Fe1387     O1388   2.040       .  S
Fe1387     O1396   1.960       .  S
O1388      C1395   1.272       .  A
O1389      C1403   1.281       .  A
O1390      C1395   1.286       .  A
O1391      C1394   1.258       .  A
O1392      C1404   1.276       .  A
O1393      C1406   1.261       .  A
C1394      O1399   1.275       .  A
C1394      C1432   1.475       .  S
C1395      C1576   1.484       .  S
O1397      C1400   1.275       .  A
O1398      C1400   1.264       .  A
C1400      C1444   1.486       .  S
O1401      C1406   1.280       .  A
O1402      C1404   1.256       .  A
C1403      O1405   1.267       .  A
C1403      C1525   1.448       .  S
Fe1407     O1423   2.131   1_565  S
Fe1407     O1420   2.042       .  S
Fe1407     O1412   2.129       .  S
Fe1407     O1418   1.954       .  S
Fe1408     O1411   2.083       .  S
Fe1408     O1415   2.026       .  S
Fe1408     O1419   2.078       .  S
Fe1408     O1424   2.046       .  S
Fe1408     O1418   1.939       .  S
Fe1409     O1427   2.035   1_565  S
Fe1409     O1414   2.132       .  S
Fe1409     O1410   2.035       .  S
Fe1409     O1418   1.959       .  S
O1410      C1417   1.268       .  A
O1411      C1425   1.279   1_565  A
O1412      C1417   1.287       .  A
O1413      C1416   1.259       .  A
O1414      C1426   1.278       .  A
O1415      C1428   1.262   1_565  A
C1416      O1421   1.277       .  A
C1416      C1477   1.475       .  S
C1417      C1588   1.490       .  S
O1419      C1422   1.274       .  A
O1420      C1422   1.264       .  A
C1422      C1492   1.470       .  S
O1423      C1428   1.280       .  A
O1424      C1426   1.259       .  A
C1425      O1427   1.266       .  A
C1425      C1453   1.452       .  S
C1429      C1430   1.398       .  A
C1429      C1434   1.414       .  A
C1430      C1431   1.402       .  A
C1430      H1435   1.084       .  S
C1431      C1432   1.414       .  A
C1431      O1436   1.372       .  S
C1432      C1433   1.398       .  A
C1433      C1434   1.403       .  A
C1433      H1437   1.084       .  S
C1434      O1438   1.373       .  S
O1436      H1440   0.992       .  S
O1438      H1439   0.992       .  S
C1441      C1442   1.406       .  A
C1441      C1446   1.412       .  A
C1442      C1443   1.414       .  A
C1442      H1447   1.083       .  S
C1443      C1444   1.416       .  A
C1443      O1448   1.371       .  S
C1444      C1445   1.399       .  A
C1445      C1446   1.391       .  A
C1445      H1449   1.084       .  S
C1446      O1450   1.368       .  S
O1448      H1452   0.991       .  S
O1450      H1451   0.990       .  S
C1453      C1454   1.399       .  A
C1454      C1455   1.396       .  A
C1454      H1459   1.084       .  S
C1455      C1456   1.403       .  A
C1455      O1460   1.367       .  S
C1457      C1458   1.393       .  A
C1457      H1461   1.076       .  S
C1458      O1462   1.370       .  S
O1460      H1464   0.991       .  S
O1462      H1463   0.992       .  S
C1465      C1466   1.403       .  A
C1465      C1470   1.405       .  A
C1466      C1467   1.406       .  A
C1466      H1471   1.083       .  S
C1467      C1468   1.416       .  A
C1467      O1472   1.371       .  S
C1468      C1469   1.404       .  A
C1469      C1470   1.401       .  A
C1469      H1473   1.080       .  S
C1470      O1474   1.364       .  S
O1472      H1476   0.991       .  S
O1474      H1475   0.992       .  S
C1477      C1478   1.397       .  A
C1477      C1482   1.416       .  A
C1478      C1479   1.402       .  A
C1478      H1483   1.084       .  S
C1479      C1480   1.414       .  A
C1479      O1484   1.372       .  S
C1480      C1481   1.397       .  A
C1481      C1482   1.400       .  A
C1481      H1485   1.084       .  S
C1482      O1486   1.372       .  S
O1484      H1488   0.991       .  S
O1486      H1487   0.991       .  S
C1489      C1490   1.405       .  A
C1489      C1494   1.408       .  A
C1490      C1491   1.407       .  A
C1490      H1495   1.083       .  S
C1491      C1492   1.412       .  A
C1491      O1496   1.371       .  S
C1492      C1493   1.396       .  A
C1493      C1494   1.391       .  A
C1493      H1497   1.085       .  S
C1494      O1498   1.372       .  S
O1496      H1500   0.991       .  S
O1498      H1499   0.991       .  S
C1501      C1502   1.410       .  A
C1501      C1506   1.413       .  A
C1502      C1503   1.404       .  A
C1502      H1507   1.079       .  S
C1503      C1504   1.406       .  A
C1503      O1508   1.371       .  S
C1504      C1505   1.405       .  A
C1505      C1506   1.410       .  A
C1505      H1509   1.084       .  S
C1506      O1510   1.379       .  S
O1508      H1512   0.991       .  S
O1510      H1511   0.992       .  S
C1513      C1514   1.407       .  A
C1513      C1518   1.411       .  A
C1514      C1515   1.401       .  A
C1514      H1519   1.084       .  S
C1515      C1516   1.406       .  A
C1515      O1520   1.371       .  S
C1516      C1517   1.403       .  A
C1516      N1933   1.439   1_554  S
C1517      C1518   1.405       .  A
C1517      H1521   1.083   1_554  S
C1518      O1522   1.372       .  S
O1520      H1524   0.992       .  S
O1522      H1523   0.992       .  S
C1525      C1526   1.396       .  A
C1525      C1530   1.404       .  A
C1526      C1527   1.391       .  A
C1526      H1531   1.084       .  S
C1527      C1528   1.404       .  A
C1527      O1532   1.369       .  S
C1528      C1529   1.400       .  A
C1529      C1530   1.394       .  A
C1529      H1533   1.083       .  S
C1530      O1534   1.371       .  S
O1532      H1536   0.993       .  S
O1534      H1535   0.991       .  S
C1537      C1538   1.406       .  A
C1537      C1542   1.403       .  A
C1538      C1539   1.405       .  A
C1538      H1543   1.083       .  S
C1539      C1540   1.410       .  A
C1539      O1544   1.370       .  S
C1540      C1541   1.409       .  A
C1541      C1542   1.401       .  A
C1541      H1545   1.080       .  S
C1542      O1546   1.371       .  S
O1544      H1548   0.991       .  S
O1546      H1547   0.991       .  S
C1549      C1554   1.415       .  A
C1550      C1551   1.423       .  A
C1550      H1555   1.080       .  S
C1551      C1552   1.413       .  A
C1551      O1556   1.370   1_545  S
C1553      C1554   1.372       .  A
C1553      H1557   1.077       .  S
C1554      O1558   1.375       .  S
O1556      H1560   0.992   1_565  S
O1558      H1559   0.992       .  S
C1561      C1566   1.406   1_554  A
C1562      C1563   1.403       .  A
C1562      H1567   1.083       .  S
C1563      O2148   1.372       .  S
C1564      C1565   1.404       .  A
C1565      C2146   1.398       .  A
C1565      H1569   1.084       .  S
C1566      C2145   1.398       .  A
C1566      O1570   1.371       .  S
O1568      C2143   1.373       .  S
O1568      H2152   0.992       .  S
O1570      H1571   0.992   1_556  S
H1572      O2148   0.992       .  S
C1573      C1574   1.401       .  A
C1573      C1578   1.415       .  A
C1574      C1575   1.398   1_655  A
C1574      H1579   1.084       .  S
C1575      C1576   1.416       .  A
C1575      O1580   1.372       .  S
C1576      C1577   1.403       .  A
C1577      C1578   1.400   1_455  A
C1577      H1581   1.084       .  S
C1578      O1582   1.372       .  S
O1580      H1584   0.992       .  S
O1582      H1583   0.992       .  S
C1585      C1586   1.401       .  A
C1585      C1590   1.419       .  A
C1586      C1587   1.402       .  A
C1586      H1591   1.084       .  S
C1587      C1588   1.419       .  A
C1587      O1592   1.372       .  S
C1588      C1589   1.400       .  A
C1589      C1590   1.403       .  A
C1589      H1593   1.084       .  S
C1590      O1594   1.372       .  S
O1594      H1595   0.992       .  S
C1597      C1598   1.398       .  A
C1597      C1602   1.417       .  A
C1598      C1599   1.402       .  A
C1598      H1603   1.084       .  S
C1599      C1600   1.416       .  A
C1599      O1604   1.372       .  S
C1600      C1601   1.398       .  A
C1601      C1602   1.407       .  A
C1601      H1605   1.083       .  S
C1602      O1606   1.373       .  S
O1604      H1608   0.992       .  S
O1606      H1607   0.992       .  S
C1609      C1610   1.404       .  A
C1609      C1614   1.413       .  A
C1610      C1611   1.393       .  A
C1610      H1615   1.084       .  S
C1611      C1612   1.407       .  A
C1611      O1616   1.369       .  S
C1612      C1613   1.408       .  A
C1613      C1614   1.414       .  A
C1613      H1617   1.083       .  S
C1614      O1618   1.371       .  S
O1616      H1620   0.991       .  S
O1618      H1619   0.992       .  S
C1621      C1622   1.396   1_545  A
C1621      C1626   1.404       .  A
C1622      C1623   1.388       .  A
C1622      H1627   1.080       .  S
C1623      C1624   1.403   1_565  A
C1623      O1628   1.372       .  S
C1624      C1625   1.398       .  A
C1625      C1626   1.397       .  A
C1625      H1629   1.084       .  S
C1626      O1630   1.369       .  S
O1628      H1632   0.991       .  S
O1630      H1631   0.992       .  S
C1633      C1634   1.403       .  A
C1633      C1638   1.404       .  A
C1634      C1635   1.410       .  A
C1634      H1639   1.081       .  S
C1635      C1636   1.413       .  A
C1635      O1640   1.376       .  S
C1636      C1637   1.408       .  A
C1637      C1638   1.399       .  A
C1637      H1641   1.080       .  S
C1638      O1642   1.371       .  S
O1640      H1644   0.991       .  S
O1642      H1643   0.992       .  S
C1645      C1646   1.398       .  A
C1645      C1650   1.417       .  A
C1646      C1647   1.401       .  A
C1646      H1651   1.084       .  S
C1647      C1648   1.414       .  A
C1647      O1652   1.372       .  S
C1648      C1649   1.397       .  A
C1649      C1650   1.403       .  A
C1649      H1653   1.084       .  S
C1650      O1654   1.372       .  S
O1652      H1656   0.992       .  S
O1654      H1655   0.991       .  S
C1657      C1658   1.400       .  A
C1657      C1662   1.414       .  A
C1658      C1659   1.396       .  A
C1658      H1663   1.084       .  S
C1659      C1660   1.410       .  A
C1659      O1664   1.373       .  S
C1660      C1661   1.399       .  A
C1661      C1662   1.406       .  A
C1661      H1665   1.084       .  S
C1662      O1666   1.371       .  S
O1664      H1668   0.991       .  S
O1666      H1667   0.992       .  S
C1669      C1670   1.401       .  A
C1669      C1674   1.393       .  A
C1670      C1671   1.408       .  A
C1670      H1675   1.084       .  S
C1671      C1672   1.418       .  A
C1671      O1676   1.367       .  S
C1672      C1673   1.415       .  A
C1673      C1674   1.384       .  A
C1673      H1677   1.081       .  S
C1674      O1678   1.373       .  S
O1676      H1680   0.992       .  S
O1678      H1679   0.992       .  S
C1681      C1682   1.400       .  A
C1681      C1686   1.407       .  A
C1682      C2263   1.398   1_554  A
C1682      H1687   1.083       .  S
C1683      C2262   1.398       .  A
C1683      C1684   1.411       .  A
C1683      O1688   1.372       .  S
C1684      C2265   1.405       .  A
C1685      C2264   1.404   1_554  A
C1685      C1686   1.399       .  A
C1685      H1689   1.084       .  S
C1686      O1690   1.371       .  S
O1688      H1692   0.991       .  S
O1690      H1691   0.992       .  S
C1693      C1694   1.400       .  A
C1693      C1698   1.402       .  A
C1694      C1695   1.393       .  A
C1694      H1699   1.083       .  S
C1695      C1696   1.403       .  A
C1695      O1700   1.372       .  S
C1696      C1697   1.401       .  A
C1697      C1698   1.394       .  A
C1697      H1701   1.084       .  S
C1698      O1702   1.373       .  S
O1700      H1704   0.991       .  S
O1702      H1703   0.992       .  S
C1705      C1706   1.413       .  A
C1705      C1710   1.409       .  A
C1706      C1707   1.423       .  A
C1706      H1711   1.083       .  S
C1707      C1708   1.413       .  A
C1707      O1712   1.369       .  S
C1708      C1709   1.405       .  A
C1709      C1710   1.369       .  A
C1709      H1713   1.086       .  S
C1710      O1714   1.375       .  S
O1712      H1716   0.992       .  S
O1714      H1715   0.992       .  S
C1717      C1722   1.411       .  A
C1718      C1719   1.374       .  A
C1718      H1723   1.080       .  S
C1719      C1720   1.418       .  A
C1719      O1724   1.375       .  S
C1720      C1721   1.413       .  A
C1721      H1725   1.080       .  S
C1722      O1726   1.370       .  S
O1724      H1728   0.989       .  S
O1726      H1727   0.991       .  S
C1729      C1734   1.415       .  A
C1730      C1731   1.401       .  A
C1730      H1735   1.084       .  S
C1731      O2316   1.371       .  S
C1732      C1733   1.400       .  A
C1732      N1754   1.437   1_554  S
C1733      C1734   1.403       .  A
C1733      H1737   1.083   1_554  S
C1734      O1738   1.373       .  S
O1736      C2311   1.371       .  S
O1736      H1740   0.993       .  S
O1738      H1739   0.992       .  S
C1741      C1743   1.540       .  S
C1741      C1745   1.548       .  S
C1741      C1744   1.560       .  S
C1741      C2288   1.529       .  S
C1742      C1746   1.534       .  S
C1742      C1748   1.540       .  S
C1742      C1747   1.557       .  S
C1742      C2300   1.529       .  S
C1743      C1751   1.391       .  A
C1743      C1746   1.369       .  A
C1744      C1755   1.379       .  A
C1744      C1747   1.438       .  A
C1745      C1759   1.399       .  A
C1745      C1748   1.369       .  A
C1746      C1749   1.386       .  A
C1747      C1753   1.384       .  A
C1748      C1756   1.383       .  A
C1749      N1750   1.357       .  A
C1749      H1762   1.083       .  S
N1750      C1751   1.361       .  A
N1750      C1872   1.439       .  S
C1751      H1752   1.083       .  S
C1753      N1754   1.355       .  A
C1753      H1763   1.081       .  S
N1754      C1755   1.355       .  A
C1755      H1761   1.079   1_556  S
C1756      N1757   1.364       .  A
N1757      C1759   1.359       .  A
C1759      H1760   1.082       .  S
Fe1764     O1780   2.037       .  S
Fe1764     O1770   2.083       .  S
Fe1764     O1777   2.026       .  S
Fe1764     O1769   2.037       .  S
Fe1764     O1775   1.894       .  S
Fe1765     O1768   2.048       .  S
Fe1765     O1772   2.098       .  S
Fe1765     O1776   2.100       .  S
Fe1765     O1781   2.099       .  S
Fe1765     O1775   1.931       .  S
Fe1766     O1784   2.088       .  S
Fe1766     O1771   2.045       .  S
Fe1766     O1778   2.031       .  S
Fe1766     O1767   2.135       .  S
Fe1766     O1775   1.965       .  S
O1767      C1774   1.269       .  A
O1768      C1782   1.270       .  A
O1769      C1774   1.251       .  A
O1770      C1773   1.272       .  A
O1771      C1783   1.271       .  A
O1772      C1785   1.278       .  A
C1773      O1778   1.260       .  A
C1773      C2273   1.448       .  S
C1774      C2285   1.484       .  S
O1776      C1779   1.275       .  A
O1777      C1779   1.260       .  A
C1779      C2225   1.472       .  S
O1780      C1785   1.271       .  A
O1781      C1783   1.279       .  A
C1782      O1784   1.274       .  A
C1782      C2237   1.477       .  S
C1783      C2264   1.473       .  S
C1785      C2249   1.459       .  S
C1786      C1788   1.565       .  S
C1786      C1790   1.560       .  S
C1786      C1789   1.540       .  S
C1786      C2216   1.540       .  S
C1787      C1791   1.543       .  S
C1787      C1793   1.534       .  S
C1787      C1792   1.544       .  S
C1787      C2252   1.535       .  S
C1788      C1796   1.399       .  A
C1788      C1791   1.390       .  A
C1789      C1800   1.370       .  A
C1789      C1792   1.404       .  A
C1790      C1804   1.404       .  A
C1790      C1793   1.390       .  A
C1791      C1794   1.381       .  A
C1792      C1798   1.384       .  A
C1793      C1801   1.378       .  A
C1794      N1795   1.350       .  A
C1794      H1807   1.082       .  S
N1795      C1796   1.366       .  A
N1795      C1850   1.441       .  S
C1796      H1797   1.081       .  S
C1798      N1799   1.358       .  A
C1798      H1808   1.080       .  S
N1799      C1800   1.356       .  A
N1799      C2261   1.434       .  S
C1800      H1806   1.083       .  S
C1801      N1802   1.354       .  A
C1801      H1803   1.082       .  S
N1802      C1804   1.358       .  A
N1802      C1874   1.447       .  S
C1804      H1805   1.079       .  S
Fe1809     O1825   2.018       .  S
Fe1809     O1815   2.085       .  S
Fe1809     O1822   2.041       .  S
Fe1809     O1814   2.043       .  S
Fe1809     O1820   1.907       .  S
Fe1810     O1817   2.114       .  S
Fe1810     O1821   2.100       .  S
Fe1810     O1826   2.127       .  S
Fe1810     O1820   1.951       .  S
Fe1811     O1829   2.086       .  S
Fe1811     O1823   2.037       .  S
O1812      C1819   1.274       .  A
O1813      C1827   1.269       .  A
O1814      C1819   1.263       .  A
O1815      C1818   1.276       .  A
O1816      C1828   1.267       .  A
O1817      C1830   1.276       .  A
C1818      C2201   1.453   1_565  S
C1819      C2213   1.475       .  S
O1821      C1824   1.279       .  A
O1822      C1824   1.266       .  A
C1824      C2177   1.475       .  S
O1825      C1830   1.268       .  A
O1826      C1828   1.285       .  A
C1827      O1829   1.270       .  A
C1827      C2189   1.489       .  S
C1830      C2297   1.474       .  S
Fe1831     O1847   2.144   1_565  S
Fe1831     O1844   2.037       .  S
Fe1831     O1836   2.139       .  S
Fe1831     O1842   1.936       .  S
Fe1832     O1835   2.090       .  S
Fe1832     O1839   2.029       .  S
Fe1832     O1843   2.090       .  S
Fe1832     O1848   2.039       .  S
Fe1832     O1842   1.939       .  S
Fe1833     O1838   2.134       .  S
Fe1833     O1834   2.037       .  S
Fe1833     O1842   1.956       .  S
O1834      C1841   1.272       .  A
O1835      C1849   1.282       .  A
O1836      C1841   1.291       .  A
O1837      C1840   1.259       .  A
O1838      C1850   1.275       .  A
O1839      C1852   1.262       .  A
C1840      O1845   1.273       .  A
C1840      C2228   1.479       .  S
C1841      C2165   1.494       .  S
O1843      C1846   1.273       .  A
O1844      C1846   1.263       .  A
C1846      C2240   1.471       .  S
O1847      C1852   1.285   1_545  A
O1848      C1850   1.259       .  A
C1849      C2204   1.446   1_565  S
Fe1853     O1869   2.117       .  S
Fe1853     O1859   2.021       .  S
Fe1853     O1866   2.057       .  S
Fe1853     O1858   2.105       .  S
Fe1853     O1864   1.940       .  S
Fe1854     O1857   2.075       .  S
Fe1854     O1861   2.036       .  S
Fe1854     O1865   2.087       .  S
Fe1854     O1870   2.030       .  S
Fe1854     O1864   1.934       .  S
Fe1855     O1873   2.042       .  S
Fe1855     O1860   2.140       .  S
Fe1855     O1867   2.135       .  S
Fe1855     O1856   2.043       .  S
Fe1855     O1864   1.960       .  S
O1856      C1863   1.272       .  A
O1857      C1871   1.277       .  A
O1858      C1863   1.283       .  A
O1859      C1862   1.259       .  A
O1860      C1872   1.279       .  A
O1861      C1874   1.263       .  A
C1862      O1867   1.277       .  A
C1862      C2180   1.482       .  S
C1863      C2153   1.481       .  S
O1865      C1868   1.274       .  A
O1866      C1868   1.265       .  A
C1868      C2192   1.483       .  S
O1869      C1874   1.278       .  A
O1870      C1872   1.257       .  A
C1871      O1873   1.268       .  A
C1871      C2276   1.449       .  S
C1875      C1877   1.561       .  S
C1875      C1879   1.564       .  S
C1875      C1878   1.552       .  S
C1875      C2120   1.544       .  S
C1876      C1880   1.531       .  S
C1876      C1882   1.532       .  S
C1876      C1881   1.539       .  S
C1876      C2129   1.531       .  S
C1877      C1885   1.399       .  A
C1877      C1880   1.386       .  A
C1878      C1889   1.369       .  A
C1878      C1881   1.416       .  A
C1879      C1893   1.409       .  A
C1879      C1882   1.379       .  A
C1880      C1883   1.377       .  A
C1881      C1887   1.382       .  A
C1882      C1890   1.372       .  A
C1883      N1884   1.350       .  A
C1883      H1896   1.083       .  S
N1884      C1885   1.365       .  A
N1884      C1984   1.437       .  S
C1885      H1886   1.081       .  S
C1887      N1888   1.359       .  A
C1887      H1897   1.081       .  S
N1888      C1889   1.358       .  A
N1888      C2141   1.435       .  S
C1889      H1895   1.083       .  S
C1890      N1891   1.353       .  A
N1891      C1893   1.361       .  A
C1893      H1894   1.080       .  S
Fe1898     O1914   2.051       .  S
Fe1898     O1904   2.076       .  S
Fe1898     O1911   2.057       .  S
Fe1898     O1903   2.059       .  S
Fe1898     O1909   1.916       .  S
Fe1899     O1902   2.044       .  S
Fe1899     O1906   2.110       .  S
Fe1899     O1910   2.086       .  S
Fe1899     O1915   2.120       .  S
Fe1899     O1909   1.955       .  S
Fe1900     O1918   2.080       .  S
Fe1900     O1905   2.045       .  S
Fe1900     O1912   2.042       .  S
Fe1900     O1901   2.096       .  S
Fe1900     O1909   1.957       .  S
O1901      C1908   1.271       .  A
O1902      C1916   1.268       .  A
O1903      C1908   1.267       .  A
O1904      C1907   1.275       .  A
O1905      C1917   1.267       .  A
O1906      C1919   1.277       .  A
C1907      O1912   1.264       .  A
C1907      C2108   1.452       .  S
C1908      C2117   1.476       .  S
O1910      C1913   1.278       .  A
O1911      C1913   1.271       .  A
C1913      C2060   1.470       .  S
O1914      C1919   1.269       .  A
O1915      C1917   1.281       .  A
C1916      O1918   1.269       .  A
C1916      C2069   1.474       .  S
C1917      C2093   1.482       .  S
C1919      C2084   1.487       .  S
C1920      C1922   1.565       .  S
C1920      C1924   1.556       .  S
C1920      C1923   1.536       .  S
C1920      C2048   1.545       .  S
C1921      C1925   1.553       .  S
C1921      C1927   1.548       .  S
C1921      C1926   1.537       .  S
C1921      C2081   1.547       .  S
C1922      C1930   1.397       .  A
C1922      C1925   1.402       .  A
C1923      C1934   1.376       .  A
C1923      C1926   1.397       .  A
C1924      C1938   1.400       .  A
C1924      C1927   1.393       .  A
C1925      C1928   1.390       .  A
C1926      C1932   1.381       .  A
C1927      C1935   1.379       .  A
C1928      N1929   1.354       .  A
C1928      H1941   1.080       .  S
N1929      C1930   1.361       .  A
N1929      C2006   1.443       .  S
C1930      H1931   1.081       .  S
C1932      N1933   1.359       .  A
C1932      H1942   1.082       .  S
N1933      C1934   1.359       .  A
C1934      H1940   1.083       .  S
C1935      N1936   1.357       .  A
C1935      H1937   1.080       .  S
N1936      C1938   1.357       .  A
N1936      C1986   1.446       .  S
C1938      H1939   1.080       .  S
Fe1943     O1959   2.022       .  S
Fe1943     O1949   2.100       .  S
Fe1943     O1956   2.052       .  S
Fe1943     O1948   2.047       .  S
Fe1943     O1954   1.913       .  S
Fe1944     O1951   2.119       .  S
Fe1944     O1955   2.086       .  S
Fe1944     O1960   2.112       .  S
Fe1944     O1954   1.956       .  S
Fe1945     O1963   2.093       .  S
Fe1945     O1957   2.044       .  S
O1946      C1953   1.278       .  A
O1947      C1961   1.269       .  A
O1948      C1953   1.261       .  A
O1949      C1952   1.278   1_565  A
O1950      C1962   1.270       .  A
O1951      C1964   1.277       .  A
C1952      C2036   1.464       .  S
C1953      C2045   1.484       .  S
O1955      C1958   1.276       .  A
O1956      C1958   1.269       .  A
C1958      C2009   1.473       .  S
O1959      C1964   1.269       .  A
O1960      C1962   1.281       .  A
C1961      O1963   1.272       .  A
C1961      C2021   1.488       .  S
C1964      C2132   1.482   1_565  S
Fe1965     O1981   2.124       .  S
Fe1965     O1971   2.017       .  S
Fe1965     O1978   2.049       .  S
Fe1965     O1970   2.113       .  S
Fe1965     O1976   1.946       .  S
Fe1966     O1969   2.087       .  S
Fe1966     O1973   2.027       .  S
Fe1966     O1977   2.086       .  S
Fe1966     O1982   2.028       .  S
Fe1966     O1976   1.932       .  S
Fe1967     O1985   2.033       .  S
Fe1967     O1972   2.135       .  S
Fe1967     O1979   2.120       .  S
Fe1967     O1968   2.040       .  S
Fe1967     O1976   1.960       .  S
O1968      C1975   1.272       .  A
O1969      C1983   1.281       .  A
O1970      C1975   1.285       .  A
O1971      C1974   1.258       .  A
O1972      C1984   1.276       .  A
O1973      C1986   1.261       .  A
C1974      O1979   1.275       .  A
C1974      C2012   1.473       .  S
C1975      C2156   1.484       .  S
O1977      C1980   1.275       .  A
O1978      C1980   1.264       .  A
C1980      C2024   1.483       .  S
O1981      C1986   1.280       .  A
O1982      C1984   1.255       .  A
C1983      O1985   1.267       .  A
C1983      C2105   1.450       .  S
Fe1987     O2003   2.127   1_565  S
Fe1987     O2000   2.039       .  S
Fe1987     O1992   2.131       .  S
Fe1987     O1998   1.954       .  S
Fe1988     O1991   2.083       .  S
Fe1988     O1995   2.026       .  S
Fe1988     O1999   2.079       .  S
Fe1988     O2004   2.045       .  S
Fe1988     O1998   1.938       .  S
Fe1989     O2007   2.034   1_565  S
Fe1989     O1994   2.132       .  S
Fe1989     O1990   2.036       .  S
Fe1989     O1998   1.958       .  S
O1990      C1997   1.268       .  A
O1991      C2005   1.279   1_565  A
O1992      C1997   1.287       .  A
O1993      C1996   1.258       .  A
O1994      C2006   1.278       .  A
O1995      C2008   1.262   1_565  A
C1996      O2001   1.277       .  A
C1996      C2057   1.476       .  S
C1997      C2168   1.490       .  S
O1999      C2002   1.275       .  A
O2000      C2002   1.264       .  A
C2002      C2072   1.469       .  S
O2003      C2008   1.279       .  A
O2004      C2006   1.260       .  A
C2005      O2007   1.266       .  A
C2005      C2033   1.452       .  S
C2009      C2010   1.398       .  A
C2009      C2014   1.414       .  A
C2010      C2011   1.402       .  A
C2010      H2015   1.084       .  S
C2011      C2012   1.414       .  A
C2011      O2016   1.372       .  S
C2012      C2013   1.397       .  A
C2013      C2014   1.402       .  A
C2013      H2017   1.084       .  S
C2014      O2018   1.373       .  S
O2016      H2020   0.992       .  S
O2018      H2019   0.992       .  S
C2021      C2022   1.405       .  A
C2021      C2026   1.412       .  A
C2022      C2023   1.413       .  A
C2022      H2027   1.083       .  S
C2023      C2024   1.416       .  A
C2023      O2028   1.371       .  S
C2024      C2025   1.398       .  A
C2025      C2026   1.391       .  A
C2025      H2029   1.084       .  S
C2026      O2030   1.368       .  S
O2028      H2032   0.991       .  S
O2030      H2031   0.990       .  S
C2033      C2034   1.399       .  A
C2034      C2035   1.396       .  A
C2034      H2039   1.084       .  S
C2035      C2036   1.403       .  A
C2035      O2040   1.367       .  S
C2037      C2038   1.394       .  A
C2037      H2041   1.077       .  S
C2038      O2042   1.369       .  S
O2040      H2044   0.991       .  S
O2042      H2043   0.992       .  S
C2045      C2046   1.403       .  A
C2045      C2050   1.405       .  A
C2046      C2047   1.407       .  A
C2046      H2051   1.083       .  S
C2047      C2048   1.417       .  A
C2047      O2052   1.371       .  S
C2048      C2049   1.405       .  A
C2049      C2050   1.403       .  A
C2049      H2053   1.080       .  S
C2050      O2054   1.364       .  S
O2052      H2056   0.992       .  S
O2054      H2055   0.992       .  S
C2057      C2058   1.398       .  A
C2057      C2062   1.416       .  A
C2058      C2059   1.402       .  A
C2058      H2063   1.083       .  S
C2059      C2060   1.415       .  A
C2059      O2064   1.372       .  S
C2060      C2061   1.397       .  A
C2061      C2062   1.399       .  A
C2061      H2065   1.084       .  S
C2062      O2066   1.372       .  S
O2064      H2068   0.991       .  S
O2066      H2067   0.992       .  S
C2069      C2070   1.405       .  A
C2069      C2074   1.408       .  A
C2070      C2071   1.407       .  A
C2070      H2075   1.083       .  S
C2071      C2072   1.412       .  A
C2071      O2076   1.371       .  S
C2072      C2073   1.395       .  A
C2073      C2074   1.390       .  A
C2073      H2077   1.085       .  S
C2074      O2078   1.371       .  S
O2076      H2080   0.991       .  S
O2078      H2079   0.991       .  S
C2081      C2082   1.410       .  A
C2081      C2086   1.412       .  A
C2082      C2083   1.407       .  A
C2082      H2087   1.079       .  S
C2083      C2084   1.407       .  A
C2083      O2088   1.371       .  S
C2084      C2085   1.405       .  A
C2085      C2086   1.404       .  A
C2085      H2089   1.083       .  S
C2086      O2090   1.372       .  S
O2088      H2092   0.991       .  S
O2090      H2091   0.991       .  S
C2093      C2094   1.406       .  A
C2093      C2098   1.411       .  A
C2094      C2095   1.402       .  A
C2094      H2099   1.084       .  S
C2095      C2096   1.406       .  A
C2095      O2100   1.371       .  S
C2096      C2097   1.403       .  A
C2097      C2098   1.405       .  A
C2097      H2101   1.083       .  S
C2098      O2102   1.372       .  S
O2100      H2104   0.992       .  S
O2102      H2103   0.992       .  S
C2105      C2106   1.396       .  A
C2105      C2110   1.404       .  A
C2106      C2107   1.392       .  A
C2106      H2111   1.084       .  S
C2107      C2108   1.404       .  A
C2107      O2112   1.369       .  S
C2108      C2109   1.400       .  A
C2109      C2110   1.394       .  A
C2109      H2113   1.083       .  S
C2110      O2114   1.372       .  S
O2112      H2116   0.992       .  S
O2114      H2115   0.991       .  S
C2117      C2118   1.405       .  A
C2117      C2122   1.403       .  A
C2118      C2119   1.404       .  A
C2118      H2123   1.082       .  S
C2119      C2120   1.411       .  A
C2119      O2124   1.371       .  S
C2120      C2121   1.409       .  A
C2121      C2122   1.401       .  A
C2121      H2125   1.080       .  S
C2122      O2126   1.371       .  S
O2124      H2128   0.992       .  S
O2126      H2127   0.991       .  S
C2129      C2134   1.416       .  A
C2130      C2131   1.422       .  A
C2130      H2135   1.080       .  S
C2131      C2132   1.414       .  A
C2131      O2136   1.370   1_545  S
C2133      C2134   1.372       .  A
C2133      H2137   1.078       .  S
C2134      O2138   1.374       .  S
O2136      H2140   0.992   1_565  S
O2138      H2139   0.992       .  S
C2141      C2146   1.405       .  A
C2142      C2143   1.403       .  A
C2142      H2147   1.083       .  S
C2144      C2145   1.405       .  A
C2145      H2149   1.084       .  S
C2146      O2150   1.371       .  S
O2150      H2151   0.992       .  S
C2153      C2154   1.401       .  A
C2153      C2158   1.415       .  A
C2154      C2155   1.397   1_655  A
C2154      H2159   1.084       .  S
C2155      C2156   1.415       .  A
C2155      O2160   1.372       .  S
C2156      C2157   1.403       .  A
C2157      C2158   1.400   1_455  A
C2157      H2161   1.084       .  S
C2158      O2162   1.372       .  S
O2160      H2164   0.992       .  S
O2162      H2163   0.992       .  S
C2165      C2166   1.401       .  A
C2165      C2170   1.421       .  A
C2166      C2167   1.402       .  A
C2166      H2171   1.083       .  S
C2167      C2168   1.419       .  A
C2167      O2172   1.372       .  S
C2168      C2169   1.400       .  A
C2169      C2170   1.403       .  A
C2169      H2173   1.084       .  S
C2170      O2174   1.372       .  S
O2174      H2175   0.992       .  S
C2177      C2178   1.398       .  A
C2177      C2182   1.416       .  A
C2178      C2179   1.401       .  A
C2178      H2183   1.084       .  S
C2179      C2180   1.415       .  A
C2179      O2184   1.372       .  S
C2180      C2181   1.398       .  A
C2181      C2182   1.407       .  A
C2181      H2185   1.083       .  S
C2182      O2186   1.373       .  S
O2184      H2188   0.992       .  S
O2186      H2187   0.992       .  S
C2189      C2190   1.403       .  A
C2189      C2194   1.413       .  A
C2190      C2191   1.392       .  A
C2190      H2195   1.084       .  S
C2191      C2192   1.407       .  A
C2191      O2196   1.368       .  S
C2192      C2193   1.408       .  A
C2193      C2194   1.414       .  A
C2193      H2197   1.083       .  S
C2194      O2198   1.371       .  S
O2196      H2200   0.991       .  S
O2198      H2199   0.992       .  S
C2201      C2202   1.396   1_545  A
C2201      C2206   1.405       .  A
C2202      C2203   1.387       .  A
C2202      H2207   1.080       .  S
C2203      C2204   1.403   1_565  A
C2203      O2208   1.372       .  S
C2204      C2205   1.398       .  A
C2205      C2206   1.397       .  A
C2205      H2209   1.084       .  S
C2206      O2210   1.369       .  S
O2208      H2212   0.991       .  S
O2210      H2211   0.992       .  S
C2213      C2214   1.403       .  A
C2213      C2218   1.404       .  A
C2214      C2215   1.411       .  A
C2214      H2219   1.081       .  S
C2215      C2216   1.413       .  A
C2215      O2220   1.376       .  S
C2216      C2217   1.408       .  A
C2217      C2218   1.399       .  A
C2217      H2221   1.080       .  S
C2218      O2222   1.371       .  S
O2220      H2224   0.991       .  S
O2222      H2223   0.992       .  S
C2225      C2226   1.399       .  A
C2225      C2230   1.417       .  A
C2226      C2227   1.402       .  A
C2226      H2231   1.084       .  S
C2227      C2228   1.414       .  A
C2227      O2232   1.372       .  S
C2228      C2229   1.397       .  A
C2229      C2230   1.403       .  A
C2229      H2233   1.084       .  S
C2230      O2234   1.372       .  S
O2232      H2236   0.992       .  S
O2234      H2235   0.991       .  S
C2237      C2238   1.400       .  A
C2237      C2242   1.414       .  A
C2238      C2239   1.394       .  A
C2238      H2243   1.084       .  S
C2239      C2240   1.409       .  A
C2239      O2244   1.373       .  S
C2240      C2241   1.399       .  A
C2241      C2242   1.407       .  A
C2241      H2245   1.084       .  S
C2242      O2246   1.372       .  S
O2244      H2248   0.991       .  S
O2246      H2247   0.992       .  S
C2249      C2250   1.401       .  A
C2249      C2254   1.393       .  A
C2250      C2251   1.409       .  A
C2250      H2255   1.084       .  S
C2251      C2252   1.419       .  A
C2251      O2256   1.368       .  S
C2252      C2253   1.415       .  A
C2253      C2254   1.385       .  A
C2253      H2257   1.081       .  S
C2254      O2258   1.374       .  S
O2256      H2260   0.992       .  S
O2258      H2259   0.992       .  S
C2261      C2262   1.401       .  A
C2261      C2266   1.407       .  A
C2262      H2267   1.083       .  S
C2263      C2264   1.412       .  A
C2263      O2268   1.372       .  S
C2265      C2266   1.400       .  A
C2265      H2269   1.084       .  S
C2266      O2270   1.371       .  S
O2268      H2272   0.991       .  S
O2270      H2271   0.992       .  S
C2273      C2274   1.401       .  A
C2273      C2278   1.402       .  A
C2274      C2275   1.393       .  A
C2274      H2279   1.084       .  S
C2275      C2276   1.404       .  A
C2275      O2280   1.372       .  S
C2276      C2277   1.400       .  A
C2277      C2278   1.393       .  A
C2277      H2281   1.084       .  S
C2278      O2282   1.373       .  S
O2280      H2284   0.992       .  S
O2282      H2283   0.992       .  S
C2285      C2286   1.413       .  A
C2285      C2290   1.409       .  A
C2286      C2287   1.423       .  A
C2286      H2291   1.083       .  S
C2287      C2288   1.413       .  A
C2287      O2292   1.369       .  S
C2288      C2289   1.404       .  A
C2289      C2290   1.370       .  A
C2289      H2293   1.085       .  S
C2290      O2294   1.374       .  S
O2292      H2296   0.992   1_556  S
O2294      H2295   0.992       .  S
C2297      C2302   1.411       .  A
C2298      C2299   1.375       .  A
C2298      H2303   1.080       .  S
C2299      C2300   1.418       .  A
C2299      O2304   1.375       .  S
C2300      C2301   1.413       .  A
C2301      H2305   1.080       .  S
C2302      O2306   1.370       .  S
O2304      H2308   0.990       .  S
O2306      H2307   0.991       .  S
C2309      C2314   1.414       .  A
C2310      C2311   1.400       .  A
C2310      H2315   1.084       .  S
C2312      C2313   1.401       .  A
C2313      C2314   1.404       .  A
C2313      H2317   1.083       .  S
C2314      O2318   1.373       .  S
O2316      H2320   0.992       .  S
O2318      H2319   0.992       .  S
