geometry optimzed in LAMMPS
_audit_creation_date              2020-11-30 
_audit_creation_method            'lammps2cif' 
_symmetry_space_group_name_H-M    'P1' 
_symmetry_Int_Tables_number       1 
_symmetry_cell_setting            triclinic 
loop_ 
_symmetry_equiv_pos_as_xyz 
  x,y,z 
_cell_length_a                    42.9655212310344 
_cell_length_b                    43.30858992372817 
_cell_length_c                    45.22035521663805 
_cell_angle_alpha                 90.03612763119136 
_cell_angle_beta                  90.04466514450309 
_cell_angle_gamma                 89.57122421702447 
loop_ 
_atom_site_label 
_atom_site_type_symbol 
_atom_site_fract_x 
_atom_site_fract_y 
_atom_site_fract_z 
_atom_site_charge 
In1        In  0.43506161  0.60196724  0.20219146     1.36870
C2          C  0.41707024  0.66000148  0.19287009     0.77310
O3          O  0.39250390  0.59662706  0.23062344    -0.61140
O4          O  0.43690350  0.59065545  0.25035780    -0.52050
C5          C  0.42621971  0.55310359  0.16755364     0.69970
O6          O  0.40720456  0.57541061  0.16809050    -0.46910
C7          C  0.49561330  0.61234567  0.19630054     0.74680
O8          O  0.41537794  0.63957904  0.17296650    -0.58770
O9          O  0.48446033  0.59821363  0.21822994    -0.48860
O10         O  0.42760818  0.65044018  0.21721658    -0.55200
C11         C  0.40791240  0.59299631  0.25412922     0.84860
O12         O  0.44806219  0.55500572  0.18593282    -0.57090
O13         O  0.47571732  0.62049810  0.17731183    -0.60380
In14       In  0.38646073  0.65247425  0.42470290     1.36870
C15         C  0.44675646  0.63872238  0.42719163     0.77310
O16         O  0.38548535  0.60975230  0.39690921    -0.61140
O17         O  0.37385972  0.65254086  0.37668452    -0.52050
C18         C  0.33991366  0.63748830  0.46076696     0.69970
O19         O  0.36811691  0.63334180  0.46749971    -0.46910
C20         C  0.39023141  0.71275912  0.43457074     0.74680
O21         O  0.42671945  0.62491676  0.44275349    -0.58770
O22         O  0.37696455  0.70198340  0.41190694    -0.48860
O23         O  0.43559374  0.65961786  0.41091529    -0.55200
C24         C  0.37936010  0.62405937  0.37331802     0.84860
O25         O  0.33579115  0.64786815  0.43501070    -0.57090
O26         O  0.39982415  0.69263047  0.45254731    -0.60380
In27       In  0.38740477  0.85189116  0.17845232     1.36870
C28         C  0.44667008  0.86624953  0.18785273     0.77310
O29         O  0.39268151  0.80857738  0.20497503    -0.61140
O30         O  0.38641778  0.80422184  0.15874795    -0.52050
C31         C  0.33771257  0.86518531  0.21162793     0.69970
O32         O  0.36527333  0.86779058  0.22088650    -0.46910
C33         C  0.38340643  0.88211169  0.12777973     0.74680
O34         O  0.42460481  0.87976955  0.20117776    -0.58770
O35         O  0.37341770  0.85496850  0.13074920    -0.48860
O36         O  0.43806925  0.84485395  0.17088580    -0.55200
C37         C  0.39074531  0.79066320  0.18310601     0.84860
O38         O  0.33589719  0.85719753  0.18490803    -0.57090
O39         O  0.39223938  0.89479276  0.15138911    -0.60380
In40       In  0.43124895  0.90210928  0.45251061     1.36870
C41         C  0.41370684  0.84369113  0.44672882     0.77310
O42         O  0.47128335  0.88441359  0.42512291    -0.61140
O43         O  0.48125062  0.91121526  0.46312743    -0.52050
C44         C  0.41897867  0.94975042  0.41717080     0.69970
O45         O  0.40748967  0.92350165  0.41250744    -0.46910
C46         C  0.40989821  0.91069882  0.00723069     0.74680
O47         O  0.39965524  0.86548710  0.43363388    -0.58770
O48         O  0.43831166  0.91020624  0.00059064    -0.48860
O49         O  0.43619902  0.85228361  0.46252661    -0.55200
C50         C  0.49186511  0.89582862  0.44170733     0.84860
O51         O  0.43463774  0.95169800  0.44059311    -0.57090
O52         O  0.39196558  0.90917016  0.48520200    -0.60380
In53       In  0.63841373  0.60318061  0.44959473     1.36870
C54         C  0.65595097  0.66117252  0.44061200     0.77310
O55         O  0.59857291  0.62057797  0.42174784    -0.61140
O56         O  0.58860214  0.59601380  0.46104989    -0.52050
C57         C  0.64995540  0.55303520  0.41727467     0.69970
O58         O  0.66770552  0.57611651  0.41653372    -0.46910
C59         C  0.65874118  0.59698099  0.00486755     0.74680
O60         O  0.66228032  0.63992192  0.42234766    -0.58770
O61         O  0.63050721  0.59708888  0.99751112    -0.48860
O62         O  0.64091529  0.65239589  0.46290288    -0.55200
C63         C  0.57799099  0.61013520  0.43887804     0.84860
O64         O  0.62841910  0.55508564  0.43595678    -0.57090
O65         O  0.67733050  0.59680135  0.48323798    -0.60380
In66       In  0.68704492  0.65248453  0.17846709     1.36870
C67         C  0.62765952  0.63742908  0.18658921     0.77310
O68         O  0.67479200  0.69481395  0.20401192    -0.61140
O69         O  0.69583083  0.70075517  0.16217048    -0.52050
C70         C  0.73403382  0.63963182  0.21520517     0.69970
O71         O  0.70592741  0.63893686  0.22287714    -0.46910
C72         C  0.69007604  0.62740122  0.12517926     0.74680
O73         O  0.64981898  0.62086015  0.19611359    -0.58770
O74         O  0.69633424  0.65535258  0.12988214    -0.48860
O75         O  0.63633047  0.66153505  0.17351172    -0.55200
C76         C  0.68376093  0.71353121  0.18450829     0.84860
O77         O  0.73801574  0.64462272  0.18801660    -0.57090
O78         O  0.68574770  0.61137054  0.14805801    -0.60380
In79       In  0.68356351  0.85308117  0.42471152     1.36870
C80         C  0.62317391  0.86683335  0.42939636     0.77310
O81         O  0.68427807  0.89547683  0.39620559    -0.61140
O82         O  0.69976887  0.85310587  0.37782123    -0.52050
C83         C  0.73010779  0.86642831  0.46168044     0.69970
O84         O  0.70186478  0.86982329  0.46854572    -0.46910
C85         C  0.68057502  0.79204749  0.43109654     0.74680
O86         O  0.64387655  0.88179509  0.44304198    -0.58770
O87         O  0.68807672  0.80471026  0.40703941    -0.48860
O88         O  0.63374338  0.84526761  0.41362601    -0.55200
C89         C  0.69328855  0.88119203  0.37342540     0.84860
O90         O  0.73432511  0.85768950  0.43539116    -0.57090
O91         O  0.67554617  0.81082185  0.45186730    -0.60380
In92       In  0.63900666  0.90320985  0.20228638     1.36870
C93         C  0.65455846  0.84401542  0.19665490     0.77310
O94         O  0.68236201  0.90339861  0.22999467    -0.61140
O95         O  0.63973589  0.91713754  0.24984303    -0.52050
C96         C  0.65064631  0.95214145  0.16830591     0.69970
O97         O  0.65951993  0.92522694  0.16155696    -0.46910
C98         C  0.57802790  0.89578041  0.19512798     0.74680
O99         O  0.66589136  0.86460807  0.18006480    -0.58770
O100        O  0.58975844  0.90590448  0.21878012    -0.48860
O101        O  0.63530671  0.85415468  0.21527568    -0.55200
C102        C  0.66814451  0.91060954  0.25340687     0.84860
O103        O  0.63704184  0.95378464  0.19293667    -0.57090
O104        O  0.59758015  0.89103419  0.17483960    -0.60380
In105      In  0.14111475  0.60255373  0.30030973     1.36870
C106        C  0.15326310  0.66204923  0.30782380     0.77310
O107        O  0.18386808  0.60773890  0.27246805    -0.61140
O108        O  0.14407074  0.58698427  0.25315477    -0.52050
C109        C  0.15429820  0.55543135  0.33635523     0.69970
O110        O  0.15635702  0.58326951  0.34420033    -0.46910
C111        C  0.07942141  0.60680957  0.30493236     0.74680
O112        O  0.16854574  0.64116570  0.32113525    -0.58770
O113        O  0.09278516  0.59844004  0.28140411    -0.48860
O114        O  0.13226736  0.65202471  0.29104420    -0.55200
C115        C  0.17106960  0.59752564  0.24937544     0.84860
O116        O  0.14724560  0.55187396  0.30954395    -0.57090
O117        O  0.09781232  0.61150271  0.32616098    -0.60380
In118      In  0.18693661  0.65181563  0.07504324     1.36870
C119        C  0.12745835  0.63767559  0.06500343     0.77310
O120        O  0.18400521  0.61404058  0.10908160    -0.61140
O121        O  0.20632752  0.65557256  0.12075532    -0.52050
C122        C  0.23369620  0.63626509  0.03909732     0.69970
O123        O  0.20549903  0.63439173  0.03158960    -0.46910
C124        C  0.18323607  0.71277464  0.06990962     0.74680
O125        O  0.14929388  0.61872627  0.05977236    -0.58770
O126        O  0.17877537  0.69875560  0.09391432    -0.48860
O127        O  0.13655141  0.66327575  0.07450005    -0.55200
C128        C  0.19646503  0.62978282  0.12930380     0.84860
O129        O  0.23762013  0.64431516  0.06563504    -0.57090
O130        O  0.19097510  0.69572646  0.04848384    -0.60380
In131      In  0.13685457  0.90091178  0.05233025     1.36870
C132        C  0.15323647  0.84202555  0.05878910     0.77310
O133        O  0.09558118  0.89060185  0.08047615    -0.61140
O134        O  0.08726601  0.90708447  0.03714939    -0.52050
C135        C  0.14995053  0.94752105  0.08881919     0.69970
O136        O  0.15274140  0.91959594  0.09613989    -0.46910
C137        C  0.16175602  0.90805782  0.49904056     0.74680
O138        O  0.17067525  0.86373418  0.06704871    -0.58770
O139        O  0.13324471  0.91266417  0.50425557    -0.48860
O140        O  0.12800421  0.85057527  0.04717398    -0.55200
C141        C  0.07565046  0.89735749  0.06103206     0.84860
O142        O  0.14238393  0.95151170  0.06216362    -0.57090
O143        O  0.17786743  0.90229774  0.02170612    -0.60380
In144      In  0.18399701  0.85288881  0.32632720     1.36870
C145        C  0.12427073  0.86659300  0.31868873     0.77310
O146        O  0.17091519  0.81109743  0.30043626    -0.61140
O147        O  0.19299056  0.80432015  0.34195516    -0.52050
C148        C  0.23254342  0.86584157  0.29170472     0.69970
O149        O  0.20473589  0.86890168  0.28319394    -0.46910
C150        C  0.18878603  0.88067313  0.37839032     0.74680
O151        O  0.14556969  0.88223789  0.30667476    -0.58770
O152        O  0.19520272  0.85248800  0.37458162    -0.48860
O153        O  0.13385774  0.84468155  0.33462704    -0.55200
C154        C  0.18031184  0.79215865  0.31968217     0.84860
O155        O  0.23512789  0.85751264  0.31822584    -0.57090
O156        O  0.18233738  0.89522157  0.35500579    -0.60380
In157      In  0.88984521  0.65305414  0.32772613     1.36870
C158        C  0.94880070  0.63690576  0.31870299     0.77310
O159        O  0.89096142  0.69738702  0.30190279    -0.61140
O160        O  0.89463258  0.69969067  0.34870614    -0.52050
C161        C  0.84122287  0.64116077  0.29298235     0.69970
O162        O  0.86902018  0.63714460  0.28483348    -0.46910
C163        C  0.88241193  0.62284371  0.37836346     0.74680
O164        O  0.92661941  0.62302082  0.30623347    -0.58770
O165        O  0.87329305  0.65034819  0.37473400    -0.48860
O166        O  0.94070413  0.65994704  0.33384251    -0.55200
C167        C  0.89463287  0.71406290  0.32448039     0.84860
O168        O  0.83856215  0.65027636  0.31938405    -0.57090
O169        O  0.89240992  0.61004249  0.35520970    -0.60380
In170      In  0.93536378  0.60304092  0.05122529     1.36870
C171        C  0.91769836  0.66188555  0.05642017     0.77310
O172        O  0.97740268  0.62200420  0.07387414    -0.61140
O173        O  0.98462138  0.59047584  0.03862569    -0.52050
C174        C  0.92228795  0.55646706  0.08798319     0.69970
O175        O  0.91981001  0.58440107  0.09545282    -0.46910
C176        C  0.90924060  0.59500723  0.49850336     0.74680
O177        O  0.90530385  0.64052707  0.07129709    -0.58770
O178        O  0.93807178  0.59222169  0.50306278    -0.48860
O179        O  0.93864618  0.65264214  0.03894478    -0.55200
C180        C  0.99664197  0.60824544  0.05742989     0.84860
O181        O  0.93022365  0.55273364  0.06142984    -0.57090
O182        O  0.89336638  0.59969450  0.02155770    -0.60380
In183      In  0.88477485  0.85400688  0.07575979     1.36870
C184        C  0.94352219  0.87237869  0.07045192     0.77310
O185        O  0.88165971  0.89481407  0.10659071    -0.61140
O186        O  0.87162624  0.85040275  0.12339509    -0.52050
C187        C  0.83659437  0.86710254  0.04024209     0.69970
O188        O  0.86441038  0.87241052  0.03328325    -0.46910
C189        C  0.89212350  0.79344602  0.06673082     0.74680
O190        O  0.92154637  0.88476768  0.05603826    -0.58770
O191        O  0.87963244  0.80441828  0.08969875    -0.48860
O192        O  0.93505678  0.85086763  0.08732423    -0.55200
C193        C  0.87524661  0.87864193  0.12895857     0.84860
O194        O  0.83353318  0.85653810  0.06600945    -0.57090
O195        O  0.89972043  0.81357362  0.04805462    -0.60380
In196      In  0.93257733  0.90194701  0.30024282     1.36870
C197        C  0.91741744  0.84378398  0.31020175     0.77310
O198        O  0.88971504  0.90326557  0.27126000    -0.61140
O199        O  0.93324068  0.91332771  0.25197819    -0.52050
C200        C  0.92268239  0.95113660  0.33478834     0.69970
O201        O  0.90927146  0.92577141  0.33910910    -0.46910
C202        C  0.99343240  0.89462848  0.30715605     0.74680
O203        O  0.90509449  0.86583499  0.32441407    -0.58770
O204        O  0.98181877  0.90850674  0.28522416    -0.48860
O205        O  0.93716138  0.85152148  0.29105022    -0.55200
C206        C  0.90461664  0.90918824  0.24799726     0.84860
O207        O  0.93969097  0.95144443  0.31218868    -0.57090
O208        O  0.97399285  0.88511876  0.32586868    -0.60380
In209      In  0.93449905  0.40205282  0.20035778     1.36870
C210        C  0.92168990  0.34266201  0.19228015     0.77310
O211        O  0.97686298  0.39216676  0.17329275    -0.61140
O212        O  0.98351878  0.40837032  0.21696268    -0.52050
C213        C  0.92072405  0.44985585  0.16526942     0.69970
O214        O  0.91701402  0.42216816  0.15760665    -0.46910
C215        C  0.90566479  0.40638040  0.25208744     0.74680
O216        O  0.90596256  0.36391194  0.18005151    -0.58770
O217        O  0.93361564  0.41427875  0.24853279    -0.48860
O218        O  0.94354719  0.35215470  0.20836669    -0.55200
C219        C  0.99603151  0.39887638  0.19338288     0.84860
O220        O  0.92959654  0.45297778  0.19166292    -0.57090
O221        O  0.89170463  0.39916490  0.22858635    -0.60380
In222      In  0.88650949  0.35267472  0.42565120     1.36870
C223        C  0.94582103  0.36926016  0.43125935     0.77310
O224        O  0.90019124  0.31225569  0.45370645    -0.61140
O225        O  0.88066758  0.30322647  0.41167876    -0.52050
C226        C  0.83777773  0.36611223  0.46018951     0.69970
O227        O  0.86548654  0.37140063  0.46775969    -0.46910
C228        C  0.87840618  0.37779672  0.37250724     0.74680
O229        O  0.92416364  0.38256076  0.44542509    -0.58770
O230        O  0.87493877  0.34941322  0.37762990    -0.48860
O231        O  0.93670635  0.34773663  0.41477391    -0.55200
C232        C  0.89273179  0.29221403  0.43485059     0.84860
O233        O  0.83524359  0.35527564  0.43449297    -0.57090
O234        O  0.88357809  0.39379159  0.39529207    -0.60380
In235      In  0.93476096  0.10172118  0.45124393     1.36870
C236        C  0.91824286  0.16080759  0.44498150     0.77310
O237        O  0.89320173  0.10028764  0.48154662    -0.61140
O238        O  0.93697056  0.08606861  0.99823155    -0.52050
C239        C  0.92333383  0.05415167  0.41577709     0.69970
O240        O  0.91395243  0.08109998  0.40995699    -0.46910
C241        C  0.99577225  0.10842710  0.44304101     0.74680
O242        O  0.90493221  0.13933688  0.43103652    -0.58770
O243        O  0.98402829  0.10086181  0.46751450    -0.48860
O244        O  0.93976701  0.15163368  0.46181511    -0.55200
C245        C  0.90884153  0.09188091  0.00379362     0.84860
O246        O  0.93672961  0.05122581  0.44037785    -0.57090
O247        O  0.97609128  0.11178793  0.42259517    -0.60380
In248      In  0.88668480  0.15224942  0.17389964     1.36870
C249        C  0.94577000  0.13540495  0.18027130     0.77310
O250        O  0.88577170  0.10949315  0.14567112    -0.61140
O251        O  0.87468392  0.15254470  0.12582378    -0.52050
C252        C  0.83863344  0.13941320  0.20908749     0.69970
O253        O  0.86652397  0.13592510  0.21716195    -0.46910
C254        C  0.89262172  0.21299621  0.18056670     0.74680
O255        O  0.92416179  0.12343526  0.19527302    -0.58770
O256        O  0.87713588  0.20135275  0.15972035    -0.48860
O257        O  0.93669407  0.15564965  0.16209226    -0.55200
C258        C  0.87920325  0.12399366  0.12227659     0.84860
O259        O  0.83570022  0.14857274  0.18285894    -0.57090
O260        O  0.90385400  0.19364049  0.19846172    -0.60380
In261      In  0.18525467  0.15379042  0.42559483     1.36870
C262        C  0.12698180  0.13578380  0.43239392     0.77310
O263        O  0.16481220  0.19556184  0.44742831    -0.61140
O264        O  0.19758638  0.20273666  0.41334932    -0.52050
C265        C  0.23213832  0.14028853  0.46217634     0.69970
O266        O  0.20401614  0.13845723  0.46963136    -0.46910
C267        C  0.19320059  0.12710579  0.37327000     0.74680
O268        O  0.14860824  0.12659462  0.44926965    -0.58770
O269        O  0.19596167  0.15571998  0.37743654    -0.48860
O270        O  0.13554658  0.15358746  0.41194151    -0.55200
C271        C  0.17907365  0.21472806  0.43169238     0.84860
O272        O  0.23610793  0.14754311  0.43550525    -0.57090
O273        O  0.18821548  0.11168980  0.39645791    -0.60380
In274      In  0.13812373  0.10213176  0.20171814     1.36870
C275        C  0.15456599  0.16082544  0.19587942     0.77310
O276        O  0.09781562  0.11653044  0.17364589    -0.61140
O277        O  0.08825568  0.09682022  0.21556295    -0.52050
C278        C  0.15057093  0.05378238  0.16672483     0.69970
O279        O  0.15680608  0.08115715  0.15956932    -0.46910
C280        C  0.16373920  0.09453722  0.25471120     0.74680
O281        O  0.16951365  0.13909042  0.18356419    -0.58770
O282        O  0.13528540  0.09007507  0.24967213    -0.48860
O283        O  0.13151453  0.15218098  0.21087108    -0.55200
C284        C  0.07751600  0.10923320  0.19242733     0.84860
O285        O  0.13950137  0.05133006  0.19238935    -0.57090
O286        O  0.17959714  0.10064584  0.23201797    -0.60380
In287      In  0.13785220  0.40404857  0.45230684     1.36870
C288        C  0.15078463  0.34482688  0.44340643     0.77310
O289        O  0.18080632  0.39943903  0.48035027    -0.61140
O290        O  0.13970027  0.41730075  0.00012357    -0.52050
C291        C  0.15085158  0.45311911  0.41878147     0.69970
O292        O  0.15620303  0.42575548  0.41054610    -0.46910
C293        C  0.07642009  0.39959796  0.44570255     0.74680
O294        O  0.16567705  0.36597126  0.43043509    -0.58770
O295        O  0.08886933  0.40799982  0.46963667    -0.48860
O296        O  0.12987840  0.35436434  0.46069110    -0.55200
C297        C  0.16739814  0.40823509  0.00370329     0.84860
O298        O  0.14031411  0.45504970  0.44467418    -0.57090
O299        O  0.09553999  0.39487450  0.42500820    -0.60380
In300      In  0.18665817  0.35155456  0.17658906     1.36870
C301        C  0.12743913  0.36984845  0.18006529     0.77310
O302        O  0.19045298  0.39121369  0.14465061    -0.61140
O303        O  0.19782644  0.34574593  0.12880116    -0.52050
C304        C  0.23444780  0.36573538  0.21200935     0.69970
O305        O  0.20645188  0.36816382  0.22011121    -0.46910
C306        C  0.18024663  0.29134192  0.18598822     0.74680
O307        O  0.14880751  0.38312106  0.19446982    -0.58770
O308        O  0.19705404  0.30180996  0.16554280    -0.48860
O309        O  0.13688868  0.34777424  0.16428211    -0.55200
C310        C  0.19547222  0.37400744  0.12256036     0.84860
O311        O  0.23756758  0.35736462  0.18555429    -0.57090
O312        O  0.16847862  0.31164307  0.20256953    -0.60380
In313      In  0.43450963  0.40217575  0.05046238     1.36870
C314        C  0.41989155  0.34312553  0.05798658     0.77310
O315        O  0.39305187  0.40461761  0.01982144    -0.61140
O316        O  0.43731812  0.41585675  0.50301461    -0.52050
C317        C  0.42424536  0.45076648  0.08559063     0.69970
O318        O  0.41253953  0.42470523  0.09073513    -0.46910
C319        C  0.49552963  0.39515296  0.05780728     0.74680
O320        O  0.40426211  0.36462025  0.06991291    -0.58770
O321        O  0.48335631  0.40406462  0.03390016    -0.48860
O322        O  0.44213674  0.35216792  0.04226964    -0.55200
C323        C  0.40903855  0.41127920  0.99739950     0.84860
O324        O  0.43948273  0.45202753  0.06188583    -0.57090
O325        O  0.47619433  0.39053232  0.07836062    -0.60380
In326      In  0.38802675  0.35084812  0.32719581     1.36870
C327        C  0.44790468  0.36531583  0.32189139     0.77310
O328        O  0.38898596  0.39454571  0.35366924    -0.61140
O329        O  0.37558600  0.35309410  0.37518584    -0.52050
C330        C  0.33885663  0.36428154  0.29303108     0.69970
O331        O  0.36655644  0.36840849  0.28472714    -0.46910
C332        C  0.39422546  0.29007864  0.32121268     0.74680
O333        O  0.42703154  0.37697733  0.30543473    -0.58770
O334        O  0.38071562  0.30212790  0.34317581    -0.48860
O335        O  0.43774409  0.34615265  0.34038525    -0.55200
C336        C  0.38226727  0.38130819  0.37762596     0.84860
O337        O  0.33668541  0.35425206  0.31903706    -0.57090
O338        O  0.40262126  0.30900329  0.30170125    -0.60380
In339      In  0.68707312  0.35296336  0.07809636     1.36870
C340        C  0.62690587  0.36643824  0.07213800     0.77310
O341        O  0.67693611  0.31039139  0.05221407    -0.61140
O342        O  0.69319425  0.30470163  0.09602080    -0.52050
C343        C  0.73496994  0.36616939  0.04282875     0.69970
O344        O  0.70699211  0.36985498  0.03504298    -0.46910
C345        C  0.69321403  0.38414667  0.12801880     0.74680
O346        O  0.64758275  0.37857525  0.05607661    -0.58770
O347        O  0.70123478  0.35617473  0.12551862    -0.48860
O348        O  0.63737652  0.34727698  0.09061848    -0.55200
C349        C  0.68351915  0.29182130  0.07278552     0.84860
O350        O  0.73815732  0.35691975  0.06904564    -0.57090
O351        O  0.68499251  0.39691281  0.10418334    -0.60380
In352      In  0.63977985  0.40283061  0.30030091     1.36870
C353        C  0.65732836  0.34427794  0.30723061     0.77310
O354        O  0.59870423  0.38922089  0.32816105    -0.61140
O355        O  0.59030771  0.40633082  0.28506427    -0.52050
C356        C  0.64926346  0.45100685  0.33530813     0.69970
O357        O  0.66160825  0.42507226  0.34041401    -0.46910
C358        C  0.66529159  0.41248026  0.24755174     0.74680
O359        O  0.67066470  0.36596155  0.32083424    -0.58770
O360        O  0.63651424  0.41456752  0.25238766    -0.48860
O361        O  0.63564258  0.35298861  0.29037070    -0.55200
C362        C  0.57878093  0.39564909  0.30849876     0.84860
O363        O  0.63407890  0.45260915  0.31157627    -0.57090
O364        O  0.68141762  0.40788772  0.27043378    -0.60380
In365      In  0.68449718  0.15207653  0.32280436     1.36870
C366        C  0.62773941  0.13228541  0.30943229     0.77310
O367        O  0.69160879  0.11358760  0.35615302    -0.61140
O368        O  0.67872209  0.15820544  0.37127363    -0.52050
C369        C  0.73417162  0.13901393  0.28956917     0.69970
O370        O  0.70661568  0.13661502  0.28031925    -0.46910
C371        C  0.68162882  0.21291870  0.31612339     0.74680
O372        O  0.65130515  0.11477375  0.30804631    -0.58770
O373        O  0.69623286  0.20059792  0.33738712    -0.48860
O374        O  0.63340829  0.15958392  0.31697209    -0.55200
C375        C  0.68381533  0.13034551  0.37774501     0.84860
O376        O  0.73605776  0.14692322  0.31629877    -0.57090
O377        O  0.67080214  0.19405026  0.29761782    -0.60380
In378      In  0.63788983  0.10323644  0.05220205     1.36870
C379        C  0.65483914  0.16190727  0.06010644     0.77310
O380        O  0.67562232  0.10531506  0.01772232    -0.61140
O381        O  0.63251133  0.08423334  0.50675103    -0.52050
C382        C  0.65119130  0.05790961  0.09000007     0.69970
O383        O  0.64825128  0.08571956  0.09767831    -0.46910
C384        C  0.57623611  0.10727960  0.05502262     0.74680
O385        O  0.67224576  0.13966101  0.06773234    -0.58770
O386        O  0.59109669  0.10832271  0.03112529    -0.48860
O387        O  0.62895933  0.15380685  0.05001533    -0.55200
C388        C  0.65805201  0.09482782  0.99776198     0.84860
O389        O  0.64997403  0.05356249  0.06243456    -0.57090
O390        O  0.59270663  0.10267142  0.07766563    -0.60380
In391      In  0.38743289  0.15285113  0.07457018     1.36870
C392        C  0.44554327  0.13388441  0.06607754     0.77310
O393        O  0.40427988  0.19422145  0.04997282    -0.61140
O394        O  0.37552710  0.20166335  0.08760215    -0.52050
C395        C  0.33950567  0.13962874  0.03914009     0.69970
O396        O  0.36740859  0.13747060  0.03091410    -0.46910
C397        C  0.38243105  0.13143491  0.12957186     0.74680
O398        O  0.42265954  0.11653009  0.06092825    -0.58770
O399        O  0.38140772  0.15971798  0.12309609    -0.48860
O400        O  0.43845337  0.16041869  0.07532296    -0.55200
C401        C  0.39169252  0.21341855  0.06728915     0.84860
O402        O  0.33649675  0.14731391  0.06582082    -0.57090
O403        O  0.38449173  0.11387346  0.10743255    -0.60380
In404      In  0.43577607  0.10025843  0.30209793     1.36870
C405        C  0.42180074  0.15912991  0.31406077     0.77310
O406        O  0.48212289  0.09861074  0.32578550    -0.61140
O407        O  0.48208284  0.10192307  0.27908429    -0.52050
C408        C  0.42123292  0.05263387  0.33644040     0.69970
O409        O  0.42340705  0.07984505  0.34600693    -0.46910
C410        C  0.40702853  0.09925364  0.25045360     0.74680
O411        O  0.40471737  0.13712470  0.32218371    -0.58770
O412        O  0.43274572  0.08561099  0.25449130    -0.48860
O413        O  0.44656515  0.15052341  0.30158805    -0.55200
C414        C  0.49800927  0.10116892  0.30250114     0.84860
O415        O  0.42452966  0.04985082  0.30887416    -0.57090
O416        O  0.39444319  0.10969657  0.27355475    -0.60380
C417        C  0.39548677  0.08274629  0.19898034    -0.20580
C418        C  0.39466541  0.10583866  0.22068433    -0.07150
C419        C  0.38620037  0.13632227  0.21270790     0.13720
C420        C  0.38036134  0.14322198  0.18298790    -0.20630
C421        C  0.38308211  0.12066021  0.16078445    -0.07150
C422        C  0.38938154  0.08962317  0.16910792     0.13710
C423        C  0.39057317  0.06371973  0.14686472    -0.23980
H424        H  0.40188259  0.05942391  0.20533446     0.15000
H425        H  0.37508100  0.16689661  0.17695527     0.15030
C426        C  0.38556252  0.16230058  0.23501727    -0.23930
H427        H  0.39475777  0.04100753  0.15761004     0.05240
H428        H  0.40977980  0.06751726  0.13094522     0.08470
H429        H  0.36804492  0.06242138  0.13488951     0.08470
H430        H  0.40875826  0.16452086  0.24563665     0.08450
H431        H  0.36771328  0.15771320  0.25215236     0.08450
H432        H  0.37972545  0.18484243  0.22462471     0.05230
C433        C  0.52294643  0.09089145  0.06876159    -0.20580
C434        C  0.54257309  0.11313750  0.05640184    -0.07150
C435        C  0.53002137  0.14142071  0.04627682     0.13720
C436        C  0.49807152  0.14700499  0.04911117    -0.20630
C437        C  0.47829442  0.12487583  0.06142496    -0.07150
C438        C  0.49072475  0.09630968  0.07110983     0.13710
C439        C  0.47041147  0.07219855  0.08507804    -0.23980
H440        H  0.53287926  0.06933241  0.07662418     0.15000
H441        H  0.48846263  0.16898906  0.04196425     0.15030
C442        C  0.55044685  0.16637753  0.03376603    -0.23930
H443        H  0.48412470  0.05167968  0.09222156     0.05240
H444        H  0.45265719  0.06434432  0.06895591     0.08470
H445        H  0.45865617  0.08205707  0.10483084     0.08470
H446        H  0.56236673  0.15793222  0.01352249     0.08450
H447        H  0.56803825  0.17315954  0.05049686     0.08450
H448        H  0.53683628  0.18734129  0.02771292     0.05230
C449        C  0.65193436  0.13076498  0.42244521    -0.20580
C450        C  0.67796774  0.11855474  0.40785060    -0.07150
C451        C  0.69670488  0.09609026  0.42221088     0.13720
C452        C  0.68986651  0.08793212  0.45171997    -0.20630
C453        C  0.66376756  0.10049092  0.46615481    -0.07150
C454        C  0.64420147  0.12156409  0.45103657     0.13710
C455        C  0.61536573  0.13510325  0.46521933    -0.23980
H456        H  0.63718147  0.14743089  0.41117283     0.15000
H457        H  0.70478739  0.07182409  0.46349194     0.15030
C458        C  0.72421747  0.08150084  0.40691346    -0.23930
H459        H  0.60373493  0.15242718  0.45078000     0.05240
H460        H  0.62144858  0.14663529  0.48629936     0.08470
H461        H  0.59842266  0.11648070  0.46969264     0.08470
H462        H  0.74075370  0.09964943  0.39990398     0.08450
H463        H  0.71624194  0.06844202  0.38721307     0.08450
H464        H  0.73679141  0.06512106  0.42165693     0.05230
C465        C  0.58433283  0.09807712  0.32239814    -0.20580
C466        C  0.59571143  0.12168269  0.30441915    -0.07150
C467        C  0.57549969  0.13667827  0.28433770     0.13720
C468        C  0.54408762  0.12819226  0.28325691    -0.20630
C469        C  0.53213760  0.10583663  0.30251032    -0.07150
C470        C  0.55269104  0.09026712  0.32204119     0.13710
C471        C  0.54169789  0.06524192  0.34231196    -0.23980
H472        H  0.60002340  0.08669451  0.33778322     0.15000
H473        H  0.52845013  0.14014535  0.26822796     0.15030
C474        C  0.58691835  0.16176072  0.26419142    -0.23930
H475        H  0.56110288  0.05488919  0.35527780     0.05240
H476        H  0.53109485  0.04661475  0.32893532     0.08470
H477        H  0.52471890  0.07497613  0.35826924     0.08470
H478        H  0.60661881  0.15300619  0.25062800     0.08450
H479        H  0.59464927  0.18156323  0.27764880     0.08450
H480        H  0.56835823  0.17015446  0.24902204     0.05230
C481        C  0.64182562  0.29003965  0.30273402    -0.20580
C482        C  0.66502755  0.31104120  0.31069214    -0.07150
C483        C  0.69417507  0.29962054  0.32069928     0.13720
C484        C  0.69912328  0.26743224  0.32241355    -0.20630
C485        C  0.67592111  0.24658473  0.31377285    -0.07150
C486        C  0.64682585  0.25819766  0.30401606     0.13710
C487        C  0.62043243  0.23731295  0.29549533    -0.23980
H488        H  0.61934694  0.29860302  0.29539515     0.15000
H489        H  0.72133811  0.25849716  0.33005253     0.15030
C490        C  0.72032601  0.32099188  0.32878435    -0.23930
H491        H  0.59880313  0.25041756  0.29026252     0.05240
H492        H  0.61511612  0.22139017  0.31402229     0.08470
H493        H  0.62696378  0.22410795  0.27539746     0.08470
H494        H  0.71345076  0.33551666  0.34795466     0.08450
H495        H  0.72599986  0.33597066  0.30962940     0.08450
H496        H  0.74175377  0.30804149  0.33501492     0.05230
C497        C  0.66036913  0.24813485  0.04578303    -0.20580
C498        C  0.67853800  0.25803754  0.06971977    -0.07150
C499        C  0.69033912  0.23572045  0.08984720     0.13720
C500        C  0.68290184  0.20437273  0.08577203    -0.20630
C501        C  0.66366539  0.19483817  0.06244153    -0.07150
C502        C  0.65280218  0.21705485  0.04182065     0.13710
C503        C  0.63416479  0.20831568  0.01483804    -0.23980
H504        H  0.65152190  0.26495910  0.03009012     0.15000
H505        H  0.69152464  0.18729561  0.10132107     0.15030
C506        C  0.71083441  0.24450081  0.11551014    -0.23930
H507        H  0.62940422  0.22849284  0.50032591     0.05240
H508        H  0.61131852  0.19879949  0.02137565     0.08470
H509        H  0.64747330  0.19113027  0.50165124     0.08470
H510        H  0.69775656  0.25959931  0.13104837     0.08450
H511        H  0.73175679  0.25670150  0.10730042     0.08450
H512        H  0.71887326  0.22392428  0.12811115     0.05230
C513        C  0.71182030  0.39054502  0.17940844    -0.20580
C514        C  0.69078164  0.39932887  0.15718218    -0.07150
C515        C  0.66463330  0.41778465  0.16463836     0.13720
C516        C  0.65869182  0.42435250  0.19447116    -0.20630
C517        C  0.67794718  0.41273560  0.21705297    -0.07150
C518        C  0.70587841  0.39712121  0.20930185     0.13710
C519        C  0.72852640  0.38542102  0.23225148    -0.23980
H520        H  0.73203951  0.37676880  0.17350109     0.15000
H521        H  0.63763687  0.43687369  0.20030281     0.15030
C522        C  0.64141999  0.42845523  0.14169079    -0.23930
H523        H  0.74917505  0.37414923  0.22201033     0.05240
H524        H  0.71713222  0.36806438  0.24660370     0.08470
H525        H  0.73694083  0.40500532  0.24587038     0.08470
H526        H  0.63109617  0.40823089  0.13032947     0.08450
H527        H  0.65312872  0.44342678  0.12525513     0.08450
H528        H  0.62206301  0.44203390  0.15166092     0.05230
C529        C  0.37830492  0.23540883  0.32766551    -0.20580
C530        C  0.40105361  0.25667222  0.31913251    -0.07150
C531        C  0.43056985  0.24579911  0.30991989     0.13720
C532        C  0.43654835  0.21398765  0.30941633    -0.20630
C533        C  0.41375062  0.19242866  0.31740690    -0.07150
C534        C  0.38402621  0.20337438  0.32645022     0.13710
C535        C  0.35798958  0.18174214  0.33424417    -0.23980
H536        H  0.35574001  0.24393607  0.33477266     0.15000
H537        H  0.45932146  0.20594515  0.30242767     0.15030
C538        C  0.45630944  0.26758923  0.30144161    -0.23930
H539        H  0.33637336  0.19444608  0.34033468     0.05240
H540        H  0.36484141  0.16724121  0.35343576     0.08470
H541        H  0.35250629  0.16683224  0.31496531     0.08470
H542        H  0.46091930  0.28378710  0.31992234     0.08450
H543        H  0.44961550  0.28081399  0.28138752     0.08450
H544        H  0.47835256  0.25510356  0.29641989     0.05230
C545        C  0.49051464  0.39440240  0.29757812    -0.20580
C546        C  0.48144717  0.37355859  0.31969029    -0.07150
C547        C  0.50455810  0.36140401  0.33903710     0.13720
C548        C  0.53579809  0.36972213  0.33504372    -0.20630
C549        C  0.54494840  0.38976662  0.31234256    -0.07150
C550        C  0.52180007  0.40269384  0.29362424     0.13710
C551        C  0.52954268  0.42556599  0.26965225    -0.23980
H552        H  0.47299928  0.40417590  0.28301454     0.15000
H553        H  0.55337623  0.35992940  0.34954201     0.15030
C554        C  0.49697136  0.33964020  0.36402178    -0.23930
H555        H  0.50831701  0.43450369  0.25842155     0.05240
H556        H  0.54427000  0.41437311  0.25252188     0.08470
H557        H  0.54190316  0.44560333  0.27935069     0.08470
H558        H  0.48686042  0.31805514  0.35512580     0.08450
H559        H  0.48039408  0.35086253  0.37955473     0.08450
H560        H  0.51799275  0.33303982  0.37693149     0.05230
C561        C  0.58338876  0.39166227  0.04500945    -0.20580
C562        C  0.59322913  0.37408152  0.06940817    -0.07150
C563        C  0.57076757  0.36446058  0.09041876     0.13720
C564        C  0.53936114  0.37232196  0.08610136    -0.20630
C565        C  0.52943868  0.38929678  0.06136171    -0.07150
C566        C  0.55190903  0.39928501  0.04057350     0.13710
C567        C  0.54326633  0.41816212  0.01373689    -0.23980
H568        H  0.60044277  0.39923350  0.02897829     0.15000
H569        H  0.52228227  0.36460791  0.10205621     0.15030
C570        C  0.57930957  0.34604774  0.11759939    -0.23930
H571        H  0.56406552  0.42495811  0.50077438     0.05240
H572        H  0.53106561  0.43966004  0.02068007     0.08470
H573        H  0.52811349  0.40451590  0.49883382     0.08470
H574        H  0.59637997  0.35898610  0.13115262     0.08450
H575        H  0.58921946  0.32331390  0.11105262     0.08450
H576        H  0.55876036  0.34148080  0.13179004     0.05230
C577        C  0.41758928  0.42031538  0.44405293    -0.20580
C578        C  0.39713722  0.41093860  0.46652536    -0.07150
C579        C  0.36852990  0.39709248  0.45847412     0.13720
C580        C  0.36303699  0.38978545  0.42863507    -0.20630
C581        C  0.38503159  0.39643970  0.40672591    -0.07150
C582        C  0.41204340  0.41309996  0.41431568     0.13710
C583        C  0.43645111  0.42105336  0.39163285    -0.23980
H584        H  0.43919297  0.43153611  0.44993214     0.15000
H585        H  0.34218731  0.37735461  0.42254668     0.15030
C586        C  0.34431607  0.38847521  0.48104163    -0.23930
H587        H  0.45651739  0.43323394  0.40167506     0.05240
H588        H  0.42623702  0.43643408  0.37451222     0.08470
H589        H  0.44548590  0.39965955  0.38106439     0.08470
H590        H  0.33732573  0.40924543  0.49390712     0.08450
H591        H  0.35364216  0.37043959  0.99612181     0.08450
H592        H  0.32304819  0.37907094  0.47047293     0.05230
C593        C  0.42884639  0.25600143  0.06323149    -0.20580
C594        C  0.39776011  0.24676512  0.06517226    -0.07150
C595        C  0.37383944  0.26925941  0.06569551     0.13720
C596        C  0.38168177  0.30069076  0.06394922    -0.20630
C597        C  0.41285582  0.30995605  0.06158863    -0.07150
C598        C  0.43679569  0.28726473  0.06174103     0.13710
C599        C  0.47083170  0.29569135  0.06137410    -0.23980
H600        H  0.44709244  0.23856489  0.06335017     0.15000
H601        H  0.36338909  0.31804175  0.06372705     0.15030
C602        C  0.34011996  0.26011536  0.06691403    -0.23930
H603        H  0.48610402  0.27507479  0.06405316     0.05240
H604        H  0.47595509  0.31182223  0.07983071     0.08470
H605        H  0.47696541  0.30658781  0.03999073     0.08470
H606        H  0.33536682  0.24762228  0.08782320     0.08450
H607        H  0.33459165  0.24491401  0.04785193     0.08450
H608        H  0.32439236  0.28055676  0.06597789     0.05230
C609        C  0.25572359  0.36897735  0.26298946    -0.20580
C610        C  0.26124648  0.37024141  0.23241104    -0.07150
C611        C  0.29228534  0.37347056  0.22230541     0.13720
C612        C  0.31683750  0.37304736  0.24285790    -0.20630
C613        C  0.31147462  0.36916895  0.27327171    -0.07150
C614        C  0.28028511  0.36823856  0.28353515     0.13710
C615        C  0.27237918  0.36615413  0.31596442    -0.23980
H616        H  0.23200918  0.36712654  0.27089614     0.15000
H617        H  0.34055102  0.37450199  0.23487851     0.15030
C618        C  0.30000381  0.37726228  0.18998020    -0.23930
H619        H  0.24688054  0.36756538  0.31982594     0.05240
H620        H  0.28331846  0.38553350  0.32813833     0.08470
H621        H  0.28057675  0.34375317  0.32509770     0.08470
H622        H  0.28678101  0.39714879  0.18070340     0.08450
H623        H  0.29428427  0.35589244  0.17764488     0.08450
H624        H  0.32515969  0.38172428  0.18650201     0.05230
C625        C  0.19865310  0.37720187  0.03852645    -0.20580
C626        C  0.18150553  0.40433252  0.03329245    -0.07150
C627        C  0.17451905  0.42417348  0.05720137     0.13720
C628        C  0.18197246  0.41475674  0.08608607    -0.20630
C629        C  0.19558396  0.38569973  0.09167435    -0.07150
C630        C  0.20549211  0.36736289  0.06738485     0.13710
C631        C  0.22240671  0.33700102  0.07140041    -0.23980
H632        H  0.20454131  0.36228304  0.02004749     0.15000
H633        H  0.17518776  0.42936520  0.10449091     0.15030
C634        C  0.15904176  0.45511655  0.05243894    -0.23930
H635        H  0.23043481  0.32729188  0.04995016     0.05240
H636        H  0.20674516  0.31972025  0.08151214     0.08470
H637        H  0.24322626  0.34034045  0.08557115     0.08470
H638        H  0.13511579  0.45211491  0.04377412     0.08450
H639        H  0.17287947  0.46889489  0.03653152     0.08450
H640        H  0.15724365  0.46845012  0.07337001     0.05230
C641        C  0.13842016  0.21560598  0.19803923    -0.20580
C642        C  0.16237754  0.19398625  0.19302815    -0.07150
C643        C  0.19261188  0.20467125  0.18623599     0.13720
C644        C  0.19784842  0.23662919  0.18427309    -0.20630
C645        C  0.17383676  0.25808983  0.18944178    -0.07150
C646        C  0.14367529  0.24742056  0.19628964     0.13710
C647        C  0.11655063  0.26930803  0.20058084    -0.23980
H648        H  0.11519212  0.20755965  0.20306409     0.15000
H649        H  0.22089631  0.24495505  0.17894252     0.15030
C650        C  0.21961436  0.18276739  0.18182073    -0.23930
H651        H  0.09438035  0.25680330  0.20408384     0.05240
H652        H  0.11368735  0.28407437  0.18068653     0.08470
H653        H  0.12050991  0.28402935  0.22029396     0.08470
H654        H  0.21540848  0.16798426  0.16219317     0.08450
H655        H  0.22264072  0.16810104  0.20177602     0.08450
H656        H  0.24173821  0.19527236  0.17807506     0.05230
C657        C  0.28242052  0.13975814  0.03147516    -0.20580
C658        C  0.31222679  0.13523402  0.01934293    -0.07150
C659        C  0.31492812  0.12895256  0.48866787     0.13720
C660        C  0.28806575  0.12933399  0.47095674    -0.20630
C661        C  0.25854625  0.13570165  0.48288345    -0.07150
C662        C  0.25561363  0.14018699  0.01377366     0.13710
C663        C  0.22468757  0.14693818  0.02826615    -0.23980
H664        H  0.28006499  0.14414832  0.05498280     0.15000
H665        H  0.29026889  0.12543228  0.44734938     0.15030
C666        C  0.34583710  0.12247121  0.47408242    -0.23930
H667        H  0.22705777  0.15052383  0.05249405     0.05240
H668        H  0.20872325  0.12721732  0.02488746     0.08470
H669        H  0.21429871  0.16828835  0.01876334     0.08470
H670        H  0.35717126  0.10217958  0.48467458     0.08450
H671        H  0.36107241  0.14295899  0.47593384     0.08450
H672        H  0.34318981  0.11719957  0.45016423     0.05230
C673        C  0.14249177  0.25757493  0.44101046    -0.20580
C674        C  0.17287881  0.24824345  0.43387874    -0.07150
C675        C  0.19589292  0.27083112  0.42901932     0.13720
C676        C  0.18787130  0.30223928  0.43175169    -0.20630
C677        C  0.15750980  0.31153501  0.43933172    -0.07150
C678        C  0.13438286  0.28881704  0.44361268     0.13710
C679        C  0.10087327  0.29707396  0.45011846    -0.23980
H680        H  0.12477989  0.24020478  0.44427766     0.15000
H681        H  0.20557564  0.31961011  0.42856201     0.15030
C682        C  0.22907791  0.26203432  0.42205671    -0.23930
H683        H  0.08578417  0.27636302  0.45046116     0.05240
H684        H  0.09173648  0.31291823  0.43280601     0.08470
H685        H  0.09896514  0.30817760  0.47216334     0.08470
H686        H  0.23017778  0.24976992  0.40052969     0.08450
H687        H  0.23850107  0.24686785  0.43977780     0.08450
H688        H  0.24424445  0.28262013  0.42045989     0.05230
C689        C  0.17143336  0.08925305  0.33814438    -0.20580
C690        C  0.19235447  0.11341466  0.34330832    -0.07150
C691        C  0.20837152  0.12653728  0.31912241     0.13720
C692        C  0.20059545  0.11740911  0.29028779    -0.20630
C693        C  0.17666530  0.09618616  0.28502330    -0.07150
C694        C  0.16306323  0.08068938  0.30927668     0.13710
C695        C  0.13937374  0.05556066  0.30503332    -0.23980
H696        H  0.15968788  0.07865677  0.35672852     0.15000
H697        H  0.21161944  0.12877293  0.27172043     0.15030
C698        C  0.23326159  0.15050140  0.32340801    -0.23930
H699        H  0.13320417  0.04440460  0.32633345     0.05240
H700        H  0.14895914  0.03745164  0.29014338     0.08470
H701        H  0.11759470  0.06520341  0.29551861     0.08470
H702        H  0.25127988  0.14160110  0.33888765     0.08450
H703        H  0.22302500  0.17218382  0.33225518     0.08450
H704        H  0.24493367  0.15629706  0.30223276     0.05230
C705        C  0.81732173  0.13488720  0.25987474    -0.20580
C706        C  0.81179373  0.13485211  0.22925460    -0.07150
C707        C  0.78078082  0.13235830  0.21890643     0.13720
C708        C  0.75626052  0.13212038  0.23936802    -0.20630
C709        C  0.76161855  0.13467316  0.26992846    -0.07150
C710        C  0.79275055  0.13500463  0.28035957     0.13710
C711        C  0.80056038  0.13586649  0.31287147    -0.23980
H712        H  0.84104484  0.13619038  0.26790345     0.15000
H713        H  0.73256443  0.13117226  0.23122553     0.15030
C714        C  0.77303660  0.13004589  0.18643075    -0.23930
H715        H  0.82605144  0.13436495  0.31678827     0.05240
H716        H  0.78962509  0.11601591  0.32428681     0.08470
H717        H  0.79226625  0.15788495  0.32276675     0.08470
H718        H  0.78601040  0.11041136  0.17637807     0.08450
H719        H  0.77903062  0.15185709  0.17498739     0.08450
H720        H  0.74782842  0.12605558  0.18271062     0.05230
C721        C  0.00099878  0.14727965  0.17054900    -0.20580
C722        C  0.97925402  0.12737634  0.18356500    -0.07150
C723        C  0.99015223  0.10097463  0.19903543     0.13720
C724        C  0.02236135  0.09553465  0.20124618    -0.20630
C725        C  0.04394058  0.11549178  0.18818345    -0.07150
C726        C  0.03308210  0.14179836  0.17267054     0.13710
C727        C  0.05502364  0.16496466  0.15926650    -0.23980
H728        H  0.99288996  0.16765699  0.15887350     0.15000
H729        H  0.03078898  0.07544962  0.21318352     0.15030
C730        C  0.96827181  0.07817231  0.21296123    -0.23930
H731        H  0.04236852  0.18495782  0.14949184     0.05240
H732        H  0.06876822  0.15397523  0.14130595     0.08470
H733        H  0.07092614  0.17399783  0.17654945     0.08470
H734        H  0.95239326  0.06869571  0.19588225     0.08450
H735        H  0.95454763  0.08962964  0.23067797     0.08450
H736        H  0.98098131  0.05844908  0.22316195     0.05230
C737        C  0.04828247  0.11491126  0.46498034    -0.20580
C738        C  0.02968087  0.11386895  0.43937113    -0.07150
C739        C  0.04379924  0.11908193  0.41148653     0.13720
C740        C  0.07571157  0.12540664  0.41016816    -0.20630
C741        C  0.09406602  0.12680761  0.43576137    -0.07150
C742        C  0.08019123  0.12147903  0.46359006     0.13710
C743        C  0.09842342  0.12401915  0.49197744    -0.23980
H744        H  0.03767765  0.11123638  0.48642895     0.15000
H745        H  0.08647321  0.12948896  0.38884396     0.15030
C746        C  0.02583177  0.11803968  0.38288233    -0.23930
H747        H  0.08344290  0.12061571  0.01170613     0.05240
H748        H  0.10895154  0.14730050  0.49365928     0.08470
H749        H  0.11701094  0.10611716  0.99257637     0.08470
H750        H  0.00755786  0.13627369  0.38269935     0.08450
H751        H  0.01523808  0.09499288  0.38022367     0.08450
H752        H  0.04100910  0.12198652  0.36338616     0.05230
C753        C  0.87009812  0.11139410  0.03987959    -0.20580
C754        C  0.89620511  0.09250910  0.03433114    -0.07150
C755        C  0.91197864  0.07875271  0.05857660     0.13720
C756        C  0.90351387  0.08718668  0.08746648    -0.20630
C757        C  0.88032007  0.10948983  0.09269268    -0.07150
C758        C  0.86213710  0.12033004  0.06876186     0.13710
C759        C  0.83464608  0.14160740  0.07343302    -0.23980
H760        H  0.85726302  0.12121859  0.02146117     0.15000
H761        H  0.91690081  0.07822511  0.10594962     0.15030
C762        C  0.93831544  0.05594650  0.05442530    -0.23930
H763        H  0.82177786  0.14587219  0.05249577     0.05240
H764        H  0.84242428  0.16430712  0.08188604     0.08470
H765        H  0.81825986  0.13107189  0.08943377     0.08470
H766        H  0.95888566  0.06753476  0.04481064     0.08450
H767        H  0.93071887  0.03686393  0.03975204     0.08450
H768        H  0.94582068  0.04562319  0.07578126     0.05230
C769        C  0.81692563  0.37298521  0.01097808    -0.20580
C770        C  0.81088430  0.37042304  0.48053399    -0.07150
C771        C  0.77953081  0.37000434  0.47074892     0.13720
C772        C  0.75540461  0.37030342  0.49169679    -0.20630
C773        C  0.76154354  0.37047939  0.02221386    -0.07150
C774        C  0.79280665  0.37279540  0.03194171     0.13710
C775        C  0.80119985  0.37496993  0.06426637    -0.23980
H776        H  0.84081987  0.37382565  0.01859673     0.15000
H777        H  0.73152262  0.36903798  0.48410131     0.15030
C778        C  0.77102990  0.36905614  0.43839084    -0.23930
H779        H  0.82651896  0.37869846  0.06753748     0.05240
H780        H  0.79517960  0.35320241  0.07577434     0.08470
H781        H  0.78861065  0.39470589  0.07456938     0.08470
H782        H  0.77878352  0.34686883  0.42845834     0.08450
H783        H  0.78201318  0.38867123  0.42665001     0.08450
H784        H  0.74548321  0.37088594  0.43495227     0.05230
C785        C  0.88128191  0.23777886  0.42164418    -0.20580
C786        C  0.89835646  0.25863583  0.43894412    -0.07150
C787        C  0.92146451  0.24702896  0.45840407     0.13720
C788        C  0.92686755  0.21511472  0.45982410    -0.20630
C789        C  0.91004711  0.19415865  0.44235688    -0.07150
C790        C  0.88668192  0.20574982  0.42310771     0.13710
C791        C  0.86741971  0.18485218  0.40384997    -0.23980
H792        H  0.86359944  0.24662838  0.40671891     0.15000
H793        H  0.94477391  0.20652985  0.47464237     0.15030
C794        C  0.94140002  0.26793564  0.47710523    -0.23930
H795        H  0.85028874  0.19803249  0.39034597     0.05240
H796        H  0.85420812  0.16848490  0.41784839     0.08470
H797        H  0.88275339  0.17190393  0.38838412     0.08470
H798        H  0.92664763  0.28074247  0.49316281     0.08450
H799        H  0.95403677  0.28443092  0.46274563     0.08450
H800        H  0.95905980  0.25478610  0.49001103     0.05230
C801        C  0.98829854  0.39680601  0.45764648    -0.20580
C802        C  0.97916358  0.37787578  0.43396544    -0.07150
C803        C  0.00211365  0.36742067  0.41366553     0.13720
C804        C  0.03325250  0.37571978  0.41796939    -0.20630
C805        C  0.04255927  0.39385847  0.44209051    -0.07150
C806        C  0.01964617  0.40475674  0.46213801     0.13710
C807        C  0.02777545  0.42492169  0.48815695    -0.23980
H808        H  0.97085866  0.40500914  0.47313096     0.15000
H809        H  0.05066607  0.36727046  0.40256711     0.15030
C810        C  0.99436881  0.34764922  0.38719601    -0.23930
H811        H  0.00673460  0.43239324  0.50058076     0.05240
H812        H  0.03983609  0.44598706  0.48035808     0.08470
H813        H  0.04296928  0.41200757  0.50376646     0.08470
H814        H  0.97684986  0.35961014  0.37313309     0.08450
H815        H  0.98533698  0.32498347  0.39458003     0.08450
H816        H  0.01512580  0.34292762  0.37323011     0.05230
C817        C  0.03988055  0.37490140  0.16628956    -0.20580
C818        C  0.03009560  0.39406546  0.18957501    -0.07150
C819        C  0.05279295  0.40679505  0.20868117     0.13720
C820        C  0.08437533  0.39910450  0.20449385    -0.20630
C821        C  0.09397454  0.37881114  0.18194276    -0.07150
C822        C  0.07126074  0.36698431  0.16221106     0.13710
C823        C  0.07944672  0.34600936  0.13664648    -0.23980
H824        H  0.02266183  0.36524002  0.15146413     0.15000
H825        H  0.10162521  0.40851675  0.21942102     0.15030
C826        C  0.04416653  0.42861317  0.23337306    -0.23930
H827        H  0.05879054  0.34042852  0.12291011     0.05240
H828        H  0.08901146  0.32380270  0.14499901     0.08470
H829        H  0.09664533  0.35742901  0.12204771     0.08470
H830        H  0.02964849  0.41654723  0.24996503     0.08450
H831        H  0.03121152  0.44877155  0.22430165     0.08450
H832        H  0.06504725  0.43744952  0.24504022     0.05230
C833        C  0.90095349  0.42364514  0.30417839    -0.20580
C834        C  0.89170705  0.40321543  0.28181932    -0.07150
C835        C  0.87344009  0.37732248  0.28930723     0.13720
C836        C  0.86717103  0.37123615  0.31917275    -0.20630
C837        C  0.87881803  0.39012888  0.34183841    -0.07150
C838        C  0.89457462  0.41762726  0.33410492     0.13710
C839        C  0.90639032  0.43989160  0.35707875    -0.23980
H840        H  0.91464012  0.44363970  0.29828694     0.15000
H841        H  0.85460926  0.35048041  0.32492500     0.15030
C842        C  0.86252793  0.35460800  0.26627142    -0.23930
H843        H  0.91774190  0.46022421  0.34686574     0.05240
H844        H  0.92390280  0.42830009  0.37141254     0.08470
H845        H  0.88666551  0.44852600  0.37069630     0.08470
H846        H  0.88283512  0.34449634  0.25444437     0.08450
H847        H  0.84693869  0.36644020  0.25023201     0.08450
H848        H  0.84929799  0.33529826  0.27624302     0.05230
C849        C  0.88437612  0.30061990  0.18092940    -0.20580
C850        C  0.91477759  0.30936612  0.18863143    -0.07150
C851        C  0.93771778  0.28612390  0.19316273     0.13720
C852        C  0.92940305  0.25500622  0.19060841    -0.20630
C853        C  0.89905392  0.24633146  0.18312252    -0.07150
C854        C  0.87622840  0.26936157  0.17810034     0.13710
C855        C  0.84309138  0.26109750  0.17085932    -0.23980
H856        H  0.86675788  0.31830179  0.17757966     0.15000
H857        H  0.94691611  0.23721087  0.19404391     0.15030
C858        C  0.97124044  0.29365252  0.19985806    -0.23930
H859        H  0.82799636  0.28193672  0.16901857     0.05240
H860        H  0.83349206  0.24616794  0.18855741     0.08470
H861        H  0.84216409  0.24868835  0.14940801     0.08470
H862        H  0.97306169  0.30498941  0.22179203     0.08450
H863        H  0.98065640  0.30905225  0.18243804     0.08450
H864        H  0.98613072  0.27258917  0.20055806     0.05230
C865        C  0.94664097  0.99749889  0.35635663    -0.20580
C866        C  0.92073987  0.97796211  0.35510897    -0.07150
C867        C  0.89472906  0.98431208  0.37347103     0.13720
C868        C  0.89562177  0.00980359  0.39284919    -0.20630
C869        C  0.92191495  0.02868263  0.39431751    -0.07150
C870        C  0.94757956  0.02258010  0.37581398     0.13710
C871        C  0.97600548  0.04269209  0.37657475    -0.23980
H872        H  0.96665491  0.99276215  0.34243496     0.15000
H873        H  0.87597528  0.01479826  0.40713602     0.15030
C874        C  0.86588156  0.96481444  0.37239660    -0.23930
H875        H  0.99404371  0.03479800  0.36063093     0.05240
H876        H  0.98641600  0.04238945  0.39906416     0.08470
H877        H  0.96919719  0.06669638  0.37075111     0.08470
H878        H  0.87139018  0.94096180  0.37975627     0.08450
H879        H  0.85656386  0.96432666  0.34948506     0.08450
H880        H  0.84735174  0.97406673  0.38712715     0.05230
C881        C  0.89371258  0.91721997  0.16526991    -0.20580
C882        C  0.87542931  0.89111178  0.15953486    -0.07150
C883        C  0.86148110  0.87549271  0.18359925     0.13720
C884        C  0.86895215  0.88435421  0.21260651    -0.20630
C885        C  0.89064895  0.90769628  0.21814455    -0.07150
C886        C  0.90180978  0.92551019  0.19428095     0.13710
C887        C  0.92253865  0.95298211  0.19918215    -0.23980
H888        H  0.90371471  0.92985397  0.14694373     0.15000
H889        H  0.85974975  0.87123507  0.23100146     0.15030
C890        C  0.83936685  0.84902157  0.17911096    -0.23930
H891        H  0.92716435  0.96548604  0.17821563     0.05240
H892        H  0.94533059  0.94553346  0.20831695     0.08470
H893        H  0.91112269  0.96938800  0.21471129     0.08470
H894        H  0.85183298  0.82878949  0.16967935     0.08450
H895        H  0.82017957  0.85623528  0.16411320     0.08450
H896        H  0.82882281  0.84145959  0.20030874     0.05230
C897        C  0.91752579  0.50007914  0.09603403    -0.20580
C898        C  0.91761414  0.52988166  0.10835228    -0.07150
C899        C  0.91555501  0.53302669  0.13950289     0.13720
C900        C  0.91513707  0.50639060  0.15725659    -0.20630
C901        C  0.91668625  0.47660992  0.14494790    -0.07150
C902        C  0.91716055  0.47348424  0.11374586     0.13710
C903        C  0.91862828  0.44240929  0.09870202    -0.23980
H904        H  0.91869460  0.49746067  0.07220531     0.15000
H905        H  0.91445077  0.50891049  0.18111317     0.15030
C906        C  0.91478367  0.56413835  0.15447168    -0.23930
H907        H  0.91926859  0.44456453  0.07422620     0.05240
H908        H  0.89771781  0.42877943  0.10445793     0.08470
H909        H  0.94001490  0.42979667  0.10561233     0.08470
H910        H  0.89418372  0.57753349  0.14680554     0.08450
H911        H  0.93641701  0.57695163  0.14942603     0.08450
H912        H  0.91311106  0.56203136  0.17890667     0.05230
C913        C  0.92564177  0.71617625  0.04102288    -0.20580
C914        C  0.90936833  0.69525203  0.05895601    -0.07150
C915        C  0.88662605  0.70692828  0.07879733     0.13720
C916        C  0.88127567  0.73897196  0.08035008    -0.20630
C917        C  0.89783701  0.75982053  0.06262192    -0.07150
C918        C  0.92032388  0.74812483  0.04256736     0.13710
C919        C  0.93965495  0.76895842  0.02328552    -0.23980
H920        H  0.94310262  0.70754191  0.02577190     0.15000
H921        H  0.86403539  0.74783597  0.09571131     0.15030
C922        C  0.86797096  0.68609768  0.09860066    -0.23930
H923        H  0.95683243  0.75574987  0.00986850     0.05240
H924        H  0.95282080  0.78543523  0.03726212     0.08470
H925        H  0.92438705  0.78178297  0.00767269     0.08470
H926        H  0.88376228  0.67331364  0.11378197     0.08450
H927        H  0.85445064  0.66958685  0.08499146     0.08450
H928        H  0.85116637  0.69931261  0.11242856     0.05230
C929        C  0.87814504  0.76594273  0.30715530    -0.20580
C930        C  0.89974376  0.74757601  0.32255388    -0.07150
C931        C  0.92675042  0.76118215  0.33458689     0.13720
C932        C  0.93159618  0.79292598  0.33075512    -0.20630
C933        C  0.90991230  0.81125857  0.31554625    -0.07150
C934        C  0.88283833  0.79780380  0.30372177     0.13710
C935        C  0.85945402  0.81694855  0.28682913    -0.23980
H936        H  0.85763959  0.75529962  0.29774973     0.15000
H937        H  0.95259018  0.80345475  0.33929250     0.15030
C938        C  0.95115777  0.74206715  0.35025142    -0.23930
H939        H  0.83966907  0.80281832  0.27887751     0.05240
H940        H  0.87084194  0.82754643  0.26732289     0.08470
H941        H  0.85004066  0.83550576  0.30130319     0.08470
H942        H  0.96001408  0.72372468  0.33521551     0.08450
H943        H  0.94104163  0.73129071  0.37028109     0.08450
H944        H  0.97124497  0.75627899  0.35734132     0.05230
C945        C  0.86421472  0.61967622  0.43028559    -0.20580
C946        C  0.88392534  0.60827554  0.40800114    -0.07150
C947        C  0.90793522  0.58714103  0.41570151     0.13720
C948        C  0.91380291  0.58105128  0.44566445    -0.20630
C949        C  0.89622962  0.59519072  0.46811877    -0.07150
C950        C  0.86986031  0.61322018  0.46027134     0.13710
C951        C  0.84877256  0.62749640  0.48321595    -0.23980
H952        H  0.84536422  0.63523155  0.42432778     0.15000
H953        H  0.93348451  0.56655009  0.45165501     0.15030
C954        C  0.92888781  0.57242657  0.39285274    -0.23930
H955        H  0.82930634  0.64069485  0.47296728     0.05240
H956        H  0.86208025  0.64370358  0.99731860     0.08470
H957        H  0.83847636  0.60907916  0.49711318     0.08470
H958        H  0.94175116  0.59041663  0.38056164     0.08450
H959        H  0.91476661  0.55858189  0.37721025     0.08450
H960        H  0.94638748  0.55670457  0.40304750     0.05230
C961        C  0.08103689  0.90426379  0.31160693    -0.20580
C962        C  0.09072931  0.87340790  0.31490210    -0.07150
C963        C  0.06814853  0.84970182  0.31517167     0.13720
C964        C  0.03655021  0.85759497  0.31304167    -0.20630
C965        C  0.02696303  0.88836025  0.30998564    -0.07150
C966        C  0.04932044  0.91202959  0.30916822     0.13710
C967        C  0.03968021  0.94545004  0.30681506    -0.23980
H968        H  0.09828356  0.92239480  0.31153610     0.15000
H969        H  0.01915529  0.83957597  0.31321432     0.15030
C970        C  0.07705623  0.81596653  0.31644627    -0.23930
H971        H  0.06006690  0.96104881  0.30753748     0.05240
H972        H  0.02403491  0.95158894  0.32549766     0.08470
H973        H  0.02727585  0.94948447  0.28562002     0.08470
H974        H  0.08821096  0.81045881  0.33794888     0.08450
H975        H  0.09326466  0.81043087  0.29805648     0.08450
H976        H  0.05647348  0.80077496  0.31418196     0.05230
C977        C  0.14750147  0.99728796  0.15824464    -0.20580
C978        C  0.15434354  0.02662207  0.14674559    -0.07150
C979        C  0.16222791  0.02916276  0.11637805     0.13720
C980        C  0.16175852  0.00265914  0.09840543    -0.20630
C981        C  0.15378398  0.97362268  0.10976914    -0.07150
C982        C  0.14698086  0.97086561  0.14027866     0.13710
C983        C  0.13756856  0.94057112  0.15394455    -0.23980
H984        H  0.14156262  0.99504636  0.18144405     0.15000
H985        H  0.16705895  0.00474823  0.07504582     0.15030
C986        C  0.17040097  0.05960527  0.10234300    -0.23930
H987        H  0.13192352  0.94305698  0.17780606     0.05240
H988        H  0.15693552  0.92359374  0.15207820     0.08470
H989        H  0.11655459  0.93156041  0.14262668     0.08470
H990        H  0.19102440  0.06955799  0.11354730     0.08450
H991        H  0.15035525  0.07583234  0.10393490     0.08450
H992        H  0.17620875  0.05699425  0.07852769     0.05230
C993        C  0.02118133  0.90430204  0.04328199    -0.20580
C994        C  0.04156984  0.89318589  0.06524959    -0.07150
C995        C  0.02897648  0.87708953  0.08974308     0.13720
C996        C  0.99691422  0.87151083  0.09078612    -0.20630
C997        C  0.97669273  0.88164630  0.06835063    -0.07150
C998        C  0.98895795  0.89893258  0.04454365     0.13710
C999        C  0.96860776  0.91113163  0.01997121    -0.23980
H1000       H  0.03056182  0.91693458  0.02466247     0.15000
H1001       H  0.98758020  0.85870831  0.10932898     0.15030
C1002       C  0.04885653  0.86496810  0.11473067    -0.23930
H1003       H  0.98230270  0.92360483  0.00298299     0.05240
H1004       H  0.95116597  0.92760595  0.02907285     0.08470
H1005       H  0.95660739  0.89172163  0.00881622     0.08470
H1006       H  0.06107009  0.88433963  0.12572839     0.08450
H1007       H  0.06594802  0.84797038  0.10608240     0.08450
H1008       H  0.03484228  0.85306789  0.13186221     0.05230
C1009       C  0.15673389  0.92140785  0.44598978    -0.20580
C1010       C  0.17422198  0.90710600  0.46845352    -0.07150
C1011       C  0.20023418  0.88851852  0.46056446     0.13720
C1012       C  0.20597953  0.88234132  0.43056899    -0.20630
C1013       C  0.18668594  0.89437705  0.40829466    -0.07150
C1014       C  0.16260680  0.91533993  0.41600671     0.13710
C1015       C  0.14147922  0.92960401  0.39303759    -0.23980
H1016       H  0.13717537  0.93606790  0.45195885     0.15000
H1017       H  0.22467209  0.86662822  0.42452074     0.15030
C1018       C  0.22088878  0.87338299  0.48340433    -0.23930
H1019       H  0.12354722  0.94488404  0.40315996     0.05240
H1020       H  0.12920390  0.91123145  0.38058382     0.08470
H1021       H  0.15535675  0.94381330  0.37753573     0.08470
H1022       H  0.20708003  0.85737139  0.99726206     0.08450
H1023       H  0.23173530  0.89131059  0.99753595     0.08450
H1024       H  0.23998369  0.85973281  0.47307233     0.05230
C1025       C  0.19052855  0.79836021  0.05279638    -0.20580
C1026       C  0.16132122  0.80911815  0.06238848    -0.07150
C1027       C  0.13983434  0.78813206  0.07459495     0.13720
C1028       C  0.14813237  0.75695458  0.07710133    -0.20630
C1029       C  0.17695234  0.74604344  0.06695158    -0.07150
C1030       C  0.19841745  0.76681670  0.05447858     0.13710
C1031       C  0.22972273  0.75588057  0.04360136    -0.23980
H1032       H  0.20687214  0.81455327  0.04336620     0.15000
H1033       H  0.13177066  0.74080985  0.08661587     0.15030
C1034       C  0.10850797  0.79859734  0.08590992    -0.23930
H1035       H  0.24397293  0.77531192  0.03526358     0.05240
H1036       H  0.22666240  0.73915485  0.02523887     0.08470
H1037       H  0.24265142  0.74453595  0.06193606     0.08470
H1038       H  0.09424831  0.80808082  0.06752389     0.08450
H1039       H  0.11180507  0.81654722  0.10312823     0.08450
H1040       H  0.09529522  0.77930190  0.09593253     0.05230
C1041       C  0.08481600  0.59936276  0.05964476    -0.20580
C1042       C  0.09391119  0.63045196  0.06149064    -0.07150
C1043       C  0.07061373  0.65391570  0.06132720     0.13720
C1044       C  0.03921620  0.64555449  0.06027717    -0.20630
C1045       C  0.03025399  0.61460693  0.05882080    -0.07150
C1046       C  0.05322040  0.59116197  0.05826487     0.13710
C1047       C  0.04446536  0.55756454  0.05741066    -0.23980
H1048       H  0.10244270  0.58135208  0.05989659     0.15000
H1049       H  0.02138871  0.66341241  0.06024391     0.15030
C1050       C  0.07823932  0.68790287  0.06175649    -0.23930
H1051       H  0.06528750  0.54224925  0.05835709     0.05240
H1052       H  0.03179952  0.55242803  0.03661064     0.08470
H1053       H  0.02938134  0.55207633  0.07661331     0.08470
H1054       H  0.09403115  0.69350134  0.04311071     0.08450
H1055       H  0.08927915  0.69417551  0.08309854     0.08450
H1056       H  0.05707815  0.70258651  0.05939233     0.05230
C1057       C  0.15029664  0.53509159  0.38733058    -0.20580
C1058       C  0.15750041  0.52941187  0.35754148    -0.07150
C1059       C  0.16530716  0.49898641  0.34869585     0.13720
C1060       C  0.16428540  0.47497736  0.36957318    -0.20630
C1061       C  0.15517814  0.48030812  0.39903187    -0.07150
C1062       C  0.14868379  0.51107526  0.40811527     0.13710
C1063       C  0.13934459  0.51908617  0.43936578    -0.23980
H1064       H  0.14445902  0.55840845  0.39418378     0.15000
H1065       H  0.16971252  0.45165275  0.36249047     0.15030
C1066       C  0.17491956  0.49153451  0.31741918    -0.23930
H1067       H  0.13607694  0.54435150  0.44242924     0.05240
H1068       H  0.15774658  0.51139016  0.45501754     0.08470
H1069       H  0.11690417  0.50794808  0.44489893     0.08470
H1070       H  0.19486998  0.50619369  0.31090920     0.08450
H1071       H  0.15514000  0.49549934  0.30207047     0.08450
H1072       H  0.18223369  0.46701016  0.31501481     0.05230
C1073       C  0.03408418  0.62168770  0.33552212    -0.20580
C1074       C  0.04531955  0.61209043  0.30781469    -0.07150
C1075       C  0.02402094  0.60919627  0.28399113     0.13720
C1076       C  0.99244692  0.61656879  0.28855456    -0.20630
C1077       C  0.98164116  0.62706912  0.31606310    -0.07150
C1078       C  0.00267192  0.62883927  0.34013542     0.13710
C1079       C  0.99318385  0.63715152  0.37133083    -0.23980
H1080       H  0.04997508  0.62362250  0.35407130     0.15000
H1081       H  0.97620972  0.61502024  0.27025153     0.15030
C1082       C  0.03415623  0.59899202  0.25359895    -0.23930
H1083       H  0.00438686  0.65914784  0.37787424     0.05240
H1084       H  0.00111491  0.61866424  0.38666145     0.08470
H1085       H  0.96781143  0.63947791  0.37457612     0.08470
H1086       H  0.04473797  0.57556440  0.25477356     0.08450
H1087       H  0.05121162  0.61558807  0.24447459     0.08450
H1088       H  0.01426705  0.59792977  0.23792827     0.05230
C1089       C  0.19737034  0.63086875  0.21352391    -0.20580
C1090       C  0.18463350  0.60189567  0.21970696    -0.07150
C1091       C  0.18080639  0.58041206  0.19656346     0.13720
C1092       C  0.18733684  0.58944720  0.16738792    -0.20630
C1093       C  0.19700194  0.61964644  0.16073655    -0.07150
C1094       C  0.20315104  0.64031625  0.18439526     0.13710
C1095       C  0.21388976  0.67300201  0.17944654    -0.23980
H1096       H  0.20039067  0.64724761  0.23144694     0.15000
H1097       H  0.18330058  0.57324564  0.14953669     0.15030
C1098       C  0.16978538  0.54806795  0.20252249    -0.23930
H1099       H  0.21766553  0.68547546  0.20061057     0.05240
H1100       H  0.19601809  0.68614847  0.16681939     0.08470
H1101       H  0.23631039  0.67285163  0.16727503     0.08470
H1102       H  0.14569691  0.54850939  0.21128423     0.08450
H1103       H  0.18547191  0.53675392  0.21883980     0.08450
H1104       H  0.16977641  0.53380881  0.18209357     0.05230
C1105       C  0.18798497  0.70458438  0.32401850    -0.20580
C1106       C  0.15970166  0.69550088  0.31109517    -0.07150
C1107       C  0.13846798  0.71857072  0.30123721     0.13720
C1108       C  0.14645897  0.74970485  0.30401566    -0.20630
C1109       C  0.17460502  0.75871235  0.31691042    -0.07150
C1110       C  0.19566549  0.73591935  0.32714624     0.13710
C1111       C  0.22660221  0.74440527  0.34044709    -0.23980
H1112       H  0.20433632  0.68709189  0.33148545     0.15000
H1113       H  0.13025569  0.76728883  0.29647895     0.15030
C1114       C  0.10699513  0.71103165  0.28834015    -0.23930
H1115       H  0.24082303  0.72363321  0.34581596     0.05240
H1116       H  0.22297845  0.75751804  0.36126178     0.08470
H1117       H  0.23995011  0.75868622  0.32456690     0.08470
H1118       H  0.09351529  0.69690749  0.30425230     0.08450
H1119       H  0.10983808  0.69840083  0.26714288     0.08450
H1120       H  0.09306695  0.73216197  0.28356390     0.05230
C1121       C  0.63785992  0.00662897  0.15682969    -0.20580
C1122       C  0.65411450  0.97961818  0.14882791    -0.07150
C1123       C  0.67143315  0.97942259  0.12211912     0.13720
C1124       C  0.67088883  0.00570962  0.10381829    -0.20630
C1125       C  0.65383610  0.03226464  0.11155110    -0.07150
C1126       C  0.63730434  0.03277660  0.13861068     0.13710
C1127       C  0.61752181  0.06006977  0.14782689    -0.23980
H1128       H  0.62451815  0.00705609  0.17717045     0.15000
H1129       H  0.68353788  0.00539621  0.08307567     0.15030
C1130       C  0.69044521  0.95180829  0.11253168    -0.23930
H1131       H  0.60506951  0.05575541  0.16893090     0.05240
H1132       H  0.59972559  0.06500217  0.13060844     0.08470
H1133       H  0.63237324  0.08062303  0.15117078     0.08470
H1134       H  0.67499662  0.93185085  0.10838738     0.08450
H1135       H  0.70774393  0.94585634  0.12991376     0.08450
H1136       H  0.70340188  0.95636301  0.09175333     0.05230
C1137       C  0.78639751  0.87462794  0.47079650    -0.20580
C1138       C  0.75642338  0.87095563  0.48260287    -0.07150
C1139       C  0.75292122  0.86904881  0.01370200     0.13720
C1140       C  0.77951140  0.86932853  0.03179853    -0.20630
C1141       C  0.80963457  0.87140264  0.01989092    -0.07150
C1142       C  0.81299792  0.87493918  0.48888402     0.13710
C1143       C  0.84440024  0.87792423  0.47433605    -0.23980
H1144       H  0.78915164  0.87645390  0.44702094     0.15000
H1145       H  0.77672632  0.86697500  0.05552510     0.15030
C1146       C  0.72153444  0.86532177  0.02810855    -0.23930
H1147       H  0.84241656  0.88036537  0.44994642     0.05240
H1148       H  0.85873645  0.85701659  0.47882617     0.08470
H1149       H  0.85637569  0.89875531  0.48282532     0.08470
H1150       H  0.71033214  0.84389011  0.02001843     0.08450
H1151       H  0.70654496  0.88561176  0.02300803     0.08450
H1152       H  0.72339842  0.86361093  0.05256392     0.05230
C1153       C  0.70870114  0.87809977  0.32078210    -0.20580
C1154       C  0.69369751  0.89486053  0.34331767    -0.07150
C1155       C  0.67549753  0.92109889  0.33559945     0.13720
C1156       C  0.67001077  0.92754115  0.30560530    -0.20630
C1157       C  0.68222718  0.90862171  0.28320241    -0.07150
C1158       C  0.70311617  0.88448661  0.29082925     0.13710
C1159       C  0.71760156  0.86367063  0.26779614    -0.23980
H1160       H  0.72322762  0.85845695  0.32659092     0.15000
H1161       H  0.65440771  0.94630541  0.29963401     0.15030
C1162       C  0.66003549  0.94132061  0.35851614    -0.23930
H1163       H  0.73292004  0.84577700  0.27787176     0.05240
H1164       H  0.73203274  0.87753070  0.25246440     0.08470
H1165       H  0.69914300  0.85157641  0.25518802     0.08470
H1166       H  0.67790079  0.95102394  0.37357163     0.08450
H1167       H  0.64290577  0.92774987  0.37136726     0.08450
H1168       H  0.64729073  0.96101115  0.34829578     0.05230
C1169       C  0.78437833  0.64562414  0.28427586    -0.20580
C1170       C  0.81377765  0.63708254  0.27323543    -0.07150
C1171       C  0.81609992  0.62673474  0.24351951     0.13720
C1172       C  0.78936793  0.62669384  0.22556635    -0.20630
C1173       C  0.76030764  0.63647114  0.23634860    -0.07150
C1174       C  0.75772160  0.64560286  0.26634397     0.13710
C1175       C  0.72739983  0.65687295  0.27943215    -0.23980
H1176       H  0.78229189  0.65339157  0.30699653     0.15000
H1177       H  0.79130285  0.61951424  0.20265384     0.15030
C1178       C  0.84648326  0.61602881  0.23020826    -0.23930
H1179       H  0.73007688  0.66410131  0.30287312     0.05240
H1180       H  0.70995968  0.63811467  0.27885801     0.08470
H1181       H  0.71863557  0.67714536  0.26681777     0.08470
H1182       H  0.85617825  0.59653957  0.24332574     0.08450
H1183       H  0.86327035  0.63536714  0.22970867     0.08450
H1184       H  0.84352181  0.60781504  0.20709993     0.05230
C1185       C  0.66121390  0.75762472  0.21194241    -0.20580
C1186       C  0.67871944  0.74738066  0.18759913    -0.07150
C1187       C  0.68926933  0.76938000  0.16675915     0.13720
C1188       C  0.68136884  0.80070439  0.17061214    -0.20630
C1189       C  0.66299979  0.81073441  0.19451101    -0.07150
C1190       C  0.65309378  0.78873582  0.21570370     0.13710
C1191       C  0.63394595  0.79737171  0.24249733    -0.23980
H1192       H  0.65315602  0.74099261  0.22806495     0.15000
H1193       H  0.68923366  0.81743248  0.15449965     0.15030
C1194       C  0.70871998  0.76032147  0.14037649    -0.23930
H1195       H  0.62927859  0.77714940  0.25688509     0.05240
H1196       H  0.61102709  0.80684110  0.23547886     0.08470
H1197       H  0.64658818  0.81459021  0.25607370     0.08470
H1198       H  0.69530051  0.74476692  0.12568913     0.08450
H1199       H  0.73038315  0.74857411  0.14787191     0.08450
H1200       H  0.71556504  0.78070853  0.12705255     0.05230
C1201       C  0.62328929  0.51358837  0.38790065    -0.20580
C1202       C  0.65169299  0.52659826  0.39660025    -0.07150
C1203       C  0.67983257  0.51433822  0.38517374     0.13720
C1204       C  0.67871298  0.48912336  0.36547989    -0.20630
C1205       C  0.65012257  0.47685174  0.35637480    -0.07150
C1206       C  0.62211114  0.48916154  0.36775692     0.13710
C1207       C  0.59086101  0.47608258  0.35928385    -0.23980
H1208       H  0.60167867  0.52300624  0.39652890     0.15000
H1209       H  0.70009619  0.47933515  0.35674477     0.15030
C1210       C  0.71089728  0.52721949  0.39409243    -0.23930
H1211       H  0.57147477  0.48770043  0.37124559     0.05240
H1212       H  0.59018098  0.45109361  0.36471572     0.08470
H1213       H  0.58672324  0.47923734  0.33524303     0.08470
H1214       H  0.71350555  0.52607095  0.41850230     0.08450
H1215       H  0.71270716  0.55156875  0.38671110     0.08450
H1216       H  0.73045557  0.51405580  0.38397197     0.05230
C1217       C  0.64494440  0.61126490  0.05584265    -0.20580
C1218       C  0.66802979  0.60035149  0.03637394    -0.07150
C1219       C  0.69879538  0.59607127  0.04713780     0.13720
C1220       C  0.70570030  0.60398943  0.07672075    -0.20630
C1221       C  0.68259749  0.61611575  0.09538305    -0.07150
C1222       C  0.65188622  0.61947229  0.08492792     0.13710
C1223       C  0.62641742  0.63264174  0.10427394    -0.23980
H1224       H  0.62135519  0.61476221  0.04797381     0.15000
H1225       H  0.72922086  0.60144076  0.08507091     0.15030
C1226       C  0.72431074  0.58326491  0.02779863    -0.23930
H1227       H  0.60372680  0.63391986  0.09254049     0.05240
H1228       H  0.63257371  0.65637713  0.11136777     0.08470
H1229       H  0.62340931  0.61782134  0.12405897     0.08470
H1230       H  0.72909493  0.59940940  0.00934462     0.08450
H1231       H  0.71728763  0.56048353  0.01881273     0.08450
H1232       H  0.74633996  0.57997417  0.04031466     0.05230
C1233       C  0.67487704  0.74015261  0.40824393    -0.20580
C1234       C  0.67674838  0.75812361  0.43412673    -0.07150
C1235       C  0.67366924  0.74342122  0.46195171     0.13720
C1236       C  0.66790733  0.71164509  0.46296755    -0.20630
C1237       C  0.66502391  0.69390805  0.43713301    -0.07150
C1238       C  0.66893645  0.70829087  0.40934724     0.13710
C1239       C  0.66562118  0.69063804  0.38080430    -0.23980
H1240       H  0.67719858  0.75124643  0.38687909     0.15000
H1241       H  0.66522942  0.70055425  0.48430726     0.15030
C1242       C  0.67640265  0.76070248  0.99081523    -0.23930
H1243       H  0.66830830  0.70584218  0.36120563     0.05240
H1244       H  0.64220724  0.68001442  0.37963893     0.08470
H1245       H  0.68380492  0.67236398  0.37946477     0.08470
H1246       H  0.65713346  0.77776472  0.99289967     0.08450
H1247       H  0.69918292  0.77258900  0.99192358     0.08450
H1248       H  0.67495531  0.74501485  0.01018918     0.05230
C1249       C  0.39198297  0.00907368  0.35977229    -0.20580
C1250       C  0.41952970  0.02596329  0.35654944    -0.07150
C1251       C  0.44616860  0.01731368  0.37277761     0.13720
C1252       C  0.44478547  0.99255227  0.39237177    -0.20630
C1253       C  0.41742925  0.97566547  0.39602526    -0.07150
C1254       C  0.39062718  0.98380096  0.37945657     0.13710
C1255       C  0.36055612  0.96666174  0.38319794    -0.23980
H1256       H  0.37158213  0.01581751  0.34716683     0.15000
H1257       H  0.46550986  0.98598363  0.40462811     0.15030
C1258       C  0.47649162  0.03373069  0.36871690    -0.23930
H1259       H  0.34166131  0.97684444  0.36945944     0.05240
H1260       H  0.35314066  0.96762257  0.40670887     0.08470
H1261       H  0.36369753  0.94221390  0.37641981     0.08470
H1262       H  0.47381571  0.05827337  0.37533419     0.08450
H1263       H  0.48315411  0.03227648  0.34507379     0.08770
H1264       H  0.49551868  0.02332452  0.38214061     0.05230
C1265       C  0.53457952  0.86152597  0.42510978    -0.20580
C1266       C  0.52554936  0.88994602  0.43734648    -0.07150
C1267       C  0.54871609  0.91106359  0.44626119     0.13720
C1268       C  0.58026235  0.90288072  0.44318670    -0.20630
C1269       C  0.58937433  0.87413148  0.43151043    -0.07150
C1270       C  0.56604424  0.85316192  0.42225903     0.13710
C1271       C  0.57371843  0.82153583  0.41014108    -0.23980
H1272       H  0.51679344  0.84529289  0.41848209     0.15000
H1273       H  0.59794780  0.91912855  0.44997698     0.15030
C1274       C  0.54048870  0.94252319  0.45835922    -0.23930
H1275       H  0.55244405  0.80797177  0.40541464     0.05240
H1276       H  0.58777323  0.80831912  0.42649105     0.08470
H1277       H  0.58672033  0.82368316  0.38905480     0.08470
H1278       H  0.52819422  0.94021509  0.47979785     0.08450
H1279       H  0.52542909  0.95509558  0.44235028     0.08450
H1280       H  0.56152646  0.95668997  0.46232860     0.05230
C1281       C  0.31531947  0.87204074  0.26179404    -0.20580
C1282       C  0.31014605  0.86940049  0.23120713    -0.07150
C1283       C  0.27905286  0.86888442  0.22065597     0.13720
C1284       C  0.25435619  0.86936134  0.24101203    -0.20630
C1285       C  0.25965343  0.86983198  0.27166830    -0.07150
C1286       C  0.29065681  0.87205835  0.28214686     0.13710
C1287       C  0.29825349  0.87431917  0.31465320    -0.23980
H1288       H  0.33897839  0.87292151  0.27004068     0.15000
H1289       H  0.23068222  0.86805371  0.23285422     0.15030
C1290       C  0.27139028  0.86744542  0.18813158    -0.23930
H1291       H  0.32350434  0.87790911  0.31850275     0.05240
H1292       H  0.29182715  0.85262753  0.32609444     0.08470
H1293       H  0.28554503  0.89417738  0.32460232     0.08470
H1294       H  0.27983042  0.84529364  0.17861769     0.08450
H1295       H  0.28227969  0.88715020  0.17645260     0.08450
H1296       H  0.24591313  0.86876340  0.18408523     0.05230
C1297       C  0.42242688  0.91510589  0.06036081    -0.20580
C1298       C  0.39956407  0.91045489  0.03858515    -0.07150
C1299       C  0.36935634  0.90127371  0.04746119     0.13720
C1300       C  0.36392880  0.89407015  0.07734694    -0.20630
C1301       C  0.38766458  0.89636437  0.09849182    -0.07150
C1302       C  0.41700404  0.90795124  0.09008531     0.13710
C1303       C  0.44358227  0.91035527  0.11181571    -0.23980
H1304       H  0.44544251  0.92259295  0.05386365     0.15000
H1305       H  0.34145295  0.88531258  0.08405318     0.15030
C1306       C  0.34311814  0.89757335  0.02565235    -0.23930
H1307       H  0.46519854  0.91876435  0.10115262     0.05240
H1308       H  0.44874708  0.88731240  0.12147379     0.08470
H1309       H  0.43739610  0.92680680  0.12972856     0.08470
H1310       H  0.34888513  0.87909360  0.00950507     0.08450
H1311       H  0.33896480  0.91972435  0.01388375     0.08450
H1312       H  0.32106580  0.89107907  0.03675491     0.05230
C1313       C  0.52374159  0.90084178  0.21363253    -0.20580
C1314       C  0.54428251  0.88917467  0.19207761    -0.07150
C1315       C  0.53232045  0.87023022  0.16923997     0.13720
C1316       C  0.50050077  0.86342243  0.16882889    -0.20630
C1317       C  0.47995923  0.87492002  0.19041450    -0.07150
C1318       C  0.49177560  0.89413372  0.21307060     0.13710
C1319       C  0.47121067  0.90725439  0.23703400    -0.23980
H1320       H  0.53277351  0.91529188  0.23119119     0.15000
H1321       H  0.49158483  0.84891018  0.15126002     0.15030
C1322       C  0.55272706  0.85634762  0.14547989    -0.23930
H1323       H  0.48467168  0.92090230  0.25338029     0.05240
H1324       H  0.45963005  0.88822457  0.24912379     0.08470
H1325       H  0.45343496  0.92288261  0.22719193     0.08470
H1326       H  0.57106658  0.84161564  0.15568037     0.08450
H1327       H  0.56351975  0.87496525  0.13220886     0.08450
H1328       H  0.53932116  0.84161010  0.12998742     0.05230
C1329       C  0.28337912  0.63091202  0.46931105    -0.20580
C1330       C  0.31350383  0.63211054  0.48132368    -0.07150
C1331       C  0.31709829  0.63099235  0.01245866     0.13720
C1332       C  0.29050401  0.63056961  0.03049946    -0.20630
C1333       C  0.26031050  0.63139534  0.01850289    -0.07150
C1334       C  0.25678350  0.63059919  0.48733031     0.13710
C1335       C  0.22528470  0.63066292  0.47259929    -0.23980
H1336       H  0.28052315  0.63127508  0.44547854     0.15000
H1337       H  0.29340022  0.63074183  0.05432782     0.15030
C1338       C  0.34863862  0.63164979  0.02708389    -0.23930
H1339       H  0.22717923  0.62984180  0.44810536     0.05240
H1340       H  0.21231618  0.65207440  0.47843088     0.08470
H1341       H  0.21195818  0.61009531  0.47968282     0.08470
H1342       H  0.36094022  0.65319268  0.02103723     0.08450
H1343       H  0.36256962  0.61124574  0.02006760     0.08450
H1344       H  0.34684881  0.63098177  0.05158769     0.05230
C1345       C  0.37343474  0.76747974  0.42812568    -0.20580
C1346       C  0.39535274  0.74617524  0.43912533    -0.07150
C1347       C  0.42263627  0.75717140  0.45298716     0.13720
C1348       C  0.42748932  0.78899017  0.45496218    -0.20630
C1349       C  0.40581637  0.81047845  0.44383095    -0.07150
C1350       C  0.37808499  0.79953058  0.43060659     0.13710
C1351       C  0.35312929  0.82119453  0.41943899    -0.23980
H1352       H  0.35247469  0.75897192  0.41765911     0.15000
H1353       H  0.44876575  0.79709248  0.46513726     0.15030
C1354       C  0.44744259  0.73568263  0.46491768    -0.23930
H1355       H  0.33265158  0.80850081  0.41084291     0.05240
H1356       H  0.36235654  0.83546596  0.40110729     0.08470
H1357       H  0.34498338  0.83635475  0.43772703     0.08470
H1358       H  0.45566060  0.71996240  0.44716533     0.08450
H1359       H  0.43799739  0.72199040  0.48354908     0.08450
H1360       H  0.46795238  0.74841776  0.47338547     0.05230
C1361       C  0.48978118  0.60435598  0.44368443    -0.20580
C1362       C  0.48047459  0.63085989  0.42803233    -0.07150
C1363       C  0.50352126  0.64893106  0.41383477     0.13720
C1364       C  0.53501397  0.64089354  0.41717335    -0.20630
C1365       C  0.54428087  0.61529850  0.43405413    -0.07150
C1366       C  0.52127228  0.59618635  0.44672261     0.13710
C1367       C  0.52946967  0.56681013  0.46295436    -0.23980
H1368       H  0.47228621  0.58992120  0.45382720     0.15000
H1369       H  0.55263503  0.65525662  0.40710256     0.15030
C1370       C  0.49560874  0.67691453  0.39537909    -0.23930
H1371       H  0.50839569  0.55367984  0.46929341     0.05240
H1372       H  0.54227113  0.57218553  0.48361116     0.08470
H1373       H  0.54394452  0.55167488  0.44856095     0.08470
H1374       H  0.48333775  0.69440121  0.40905161     0.08450
H1375       H  0.48080367  0.67008065  0.37637683     0.08450
H1376       H  0.51673064  0.68803282  0.38622846     0.05230
C1377       C  0.44844961  0.49704940  0.10697782    -0.20580
C1378       C  0.42265906  0.47736029  0.10621179    -0.07150
C1379       C  0.39715491  0.48333865  0.12526683     0.13720
C1380       C  0.39829016  0.50883832  0.14463090    -0.20630
C1381       C  0.42467872  0.52766364  0.14595881    -0.07150
C1382       C  0.44995880  0.52181807  0.12678995     0.13710
C1383       C  0.47842529  0.54204068  0.12676016    -0.23980
H1384       H  0.46802890  0.49256594  0.09244202     0.15000
H1385       H  0.37891550  0.51362939  0.15931377     0.15030
C1386       C  0.36862186  0.46336570  0.12497724    -0.23930
H1387       H  0.49537242  0.53491408  0.10947105     0.05240
H1388       H  0.49044065  0.54058161  0.14845131     0.08470
H1389       H  0.47151083  0.56637419  0.12241031     0.08470
H1390       H  0.37479405  0.43956705  0.13204432     0.08450
H1391       H  0.35855898  0.46280615  0.10235823     0.08450
H1392       H  0.35045286  0.47223187  0.14031556     0.05230
C1393       C  0.55071792  0.59893552  0.20718989    -0.20580
C1394       C  0.52926892  0.61877220  0.19325349    -0.07150
C1395       C  0.54036803  0.64454919  0.17734987     0.13720
C1396       C  0.57247094  0.64970436  0.17586155    -0.20630
C1397       C  0.59409677  0.62985215  0.18963939    -0.07150
C1398       C  0.58296923  0.60392345  0.20542985     0.13710
C1399       C  0.60461084  0.58137837  0.22053311    -0.23980
H1400       H  0.54217475  0.57916294  0.21933097     0.15000
H1401       H  0.58068970  0.66956847  0.16366535     0.15030
C1402       C  0.51868106  0.66734723  0.16253016    -0.23930
H1403       H  0.59169998  0.56269458  0.23189106     0.05240
H1404       H  0.61867626  0.59354291  0.23746250     0.08470
H1405       H  0.62016791  0.57034006  0.20395900     0.08470
H1406       H  0.50206175  0.67700578  0.17897334     0.08450
H1407       H  0.50573718  0.65582106  0.14443139     0.08450
H1408       H  0.53146596  0.68696470  0.15258234     0.05230
C1409       C  0.40978509  0.57941850  0.30719602    -0.20580
C1410       C  0.39414813  0.59459703  0.28410181    -0.07150
C1411       C  0.36968367  0.61550817  0.29095311     0.13720
C1412       C  0.36357631  0.62275534  0.32066681    -0.20630
C1413       C  0.38114460  0.60963125  0.34366464    -0.07150
C1414       C  0.40361940  0.58657409  0.33690653     0.13710
C1415       C  0.42296357  0.57108532  0.36055876    -0.23980
H1416       H  0.42833417  0.56324670  0.30190279     0.15000
H1417       H  0.34616017  0.64014141  0.32590168     0.15030
C1418       C  0.35148468  0.63212419  0.26720739    -0.23930
H1419       H  0.43971139  0.55410911  0.35109385     0.05240
H1420       H  0.40758186  0.55845356  0.37603283     0.08470
H1421       H  0.43658286  0.58859820  0.37287817     0.08470
H1422       H  0.33934127  0.61507840  0.25304096     0.08450
H1423       H  0.36737631  0.64624221  0.25349093     0.08450
H1424       H  0.33357740  0.64788715  0.27667845     0.05230
C1425       C  0.39612714  0.70872955  0.21334713    -0.20580
C1426       C  0.40777961  0.69267087  0.18872301    -0.07150
C1427       C  0.41217049  0.70864014  0.16181695     0.13720
C1428       C  0.40538218  0.74039802  0.16050649    -0.20630
C1429       C  0.39472038  0.75670874  0.18545926    -0.07150
C1430       C  0.38945282  0.74044212  0.21212725     0.13710
C1431       C  0.37648921  0.75602885  0.23934767    -0.23980
H1432       H  0.39255283  0.69638350  0.23391049     0.15000
H1433       H  0.40948140  0.75279008  0.14006403     0.15030
C1434       C  0.42542553  0.69281370  0.13488730    -0.23930
H1435       H  0.37195141  0.73922977  0.25736785     0.05240
H1436       H  0.35411489  0.76771577  0.23391643     0.08470
H1437       H  0.39333117  0.77310099  0.24799559     0.08470
H1438       H  0.40944319  0.67440056  0.12735494     0.08450
H1439       H  0.44852762  0.68259152  0.14024010     0.08450
H1440       H  0.42855880  0.70915728  0.11621874     0.05230
In1441     In  0.43506336  0.60196743  0.70219295     1.36870
C1442       C  0.41707195  0.66000158  0.69287097     0.77310
O1443       O  0.39250561  0.59662762  0.73062504    -0.61140
O1444       O  0.43690509  0.59065637  0.75035959    -0.52050
C1445       C  0.42622103  0.55310381  0.66755496     0.69970
O1446       O  0.40720594  0.57541087  0.66809213    -0.46910
C1447       C  0.49561526  0.61234551  0.69630224     0.74680
O1448       O  0.41537997  0.63957900  0.67296750    -0.58770
O1449       O  0.48446215  0.59821302  0.71823132    -0.48860
O1450       O  0.42760975  0.65044052  0.71721759    -0.55200
C1451       C  0.40791399  0.59299725  0.75413094     0.84860
O1452       O  0.44806369  0.55500584  0.68593396    -0.57090
O1453       O  0.47571931  0.62049858  0.67731375    -0.60380
In1454     In  0.38645737  0.65247381  0.92470527     1.36870
C1455       C  0.44675326  0.63872218  0.92719387     0.77310
O1456       O  0.38548328  0.60975214  0.89691100    -0.61140
O1457       O  0.37385684  0.65254066  0.87668668    -0.52050
C1458       C  0.33991002  0.63748794  0.96076946     0.69970
O1459       O  0.36811330  0.63334203  0.96750246    -0.46910
C1460       C  0.39022847  0.71275877  0.93457260     0.74680
O1461       O  0.42671632  0.62491601  0.94275540    -0.58770
O1462       O  0.37696108  0.70198291  0.91190913    -0.48860
O1463       O  0.43559039  0.65961812  0.91091818    -0.55200
C1464       C  0.37935822  0.62405939  0.87331985     0.84860
O1465       O  0.33578764  0.64786710  0.93501292    -0.57090
O1466       O  0.39982130  0.69263022  0.95254923    -0.60380
In1467     In  0.38740475  0.85189089  0.67845228     1.36870
C1468       C  0.44667005  0.86624924  0.68785257     0.77310
O1469       O  0.39268166  0.80857722  0.70497509    -0.61140
O1470       O  0.38641798  0.80422149  0.65874801    -0.52050
C1471       C  0.33771259  0.86518480  0.71162795     0.69970
O1472       O  0.36527336  0.86779040  0.72088642    -0.46910
C1473       C  0.38340629  0.88211158  0.62777980     0.74680
O1474       O  0.42460483  0.87976922  0.70117772    -0.58770
O1475       O  0.37341768  0.85496833  0.63074916    -0.48860
O1476       O  0.43806917  0.84485373  0.67088559    -0.55200
C1477       C  0.39074560  0.79066296  0.68310612     0.84860
O1478       O  0.33589717  0.85719684  0.68490810    -0.57090
O1479       O  0.39223915  0.89479260  0.65138923    -0.60380
In1480     In  0.43124858  0.90210877  0.95251029     1.36870
C1481       C  0.41370603  0.84369067  0.94672872     0.77310
O1482       O  0.47128297  0.88441310  0.92512255    -0.61140
O1483       O  0.48125024  0.91121470  0.96312713    -0.52050
C1484       C  0.41897844  0.94974999  0.91717052     0.69970
O1485       O  0.40748969  0.92350115  0.91250692    -0.46910
C1486       C  0.40989831  0.91069925  0.50723093     0.74680
O1487       O  0.39965427  0.86548676  0.93363410    -0.58770
O1488       O  0.43831179  0.91020695  0.50059096    -0.48860
O1489       O  0.43619867  0.85228300  0.96252598    -0.55200
C1490       C  0.49186472  0.89582812  0.94170700     0.84860
O1491       O  0.43463720  0.95169757  0.94059302    -0.57090
O1492       O  0.39196539  0.90916994  0.98520181    -0.60380
In1493     In  0.63841133  0.60318082  0.94959317     1.36870
C1494       C  0.65594880  0.66117271  0.94061066     0.77310
O1495       O  0.59856979  0.62057808  0.92174702    -0.61140
O1496       O  0.58860000  0.59601402  0.96104934    -0.52050
C1497       C  0.64995342  0.55303556  0.91727308     0.69970
O1498       O  0.66770343  0.57611694  0.91653226    -0.46910
C1499       C  0.65874316  0.59698142  0.50486941     0.74680
O1500       O  0.66227713  0.63992235  0.92234577    -0.58770
O1501       O  0.63050923  0.59708968  0.49751283    -0.48860
O1502       O  0.64091387  0.65239588  0.96290193    -0.55200
C1503       C  0.57798828  0.61013534  0.93887770     0.84860
O1504       O  0.62841686  0.55508598  0.93595491    -0.57090
O1505       O  0.67732841  0.59680162  0.98323605    -0.60380
In1506     In  0.68704733  0.65248372  0.67846973     1.36870
C1507       C  0.62766181  0.63742828  0.68659165     0.77310
O1508       O  0.67479387  0.69481339  0.70401404    -0.61140
O1509       O  0.69583379  0.70075428  0.66217307    -0.52050
C1510       C  0.73403631  0.63963056  0.71520794     0.69970
O1511       O  0.70592993  0.63893666  0.72288009    -0.46910
C1512       C  0.69007809  0.62740105  0.62518150     0.74680
O1513       O  0.64982122  0.62085913  0.69611584    -0.58770
O1514       O  0.69633672  0.65535225  0.62988478    -0.48860
O1515       O  0.63633289  0.66153442  0.67351453    -0.55200
C1516       C  0.68376319  0.71353051  0.68451045     0.84860
O1517       O  0.73801809  0.64462079  0.68801924    -0.57090
O1518       O  0.68574952  0.61137013  0.64806006    -0.60380
In1519     In  0.68356316  0.85308113  0.92471102     1.36870
C1520       C  0.62317355  0.86683316  0.92939590     0.77310
O1521       O  0.68427742  0.89547673  0.89620503    -0.61140
O1522       O  0.69976884  0.85310591  0.87782084    -0.52050
C1523       C  0.73010743  0.86642889  0.96167970     0.69970
O1524       O  0.70186442  0.86982378  0.96854501    -0.46910
C1525       C  0.68057458  0.79204744  0.93109598     0.74680
O1526       O  0.64387614  0.88179479  0.94304169    -0.58770
O1527       O  0.68807614  0.80471026  0.90703883    -0.48860
O1528       O  0.63374307  0.84526761  0.91362534    -0.55200
C1529       C  0.69328826  0.88119199  0.87342493     0.84860
O1530       O  0.73432475  0.85768962  0.93539056    -0.57090
O1531       O  0.67554609  0.81082176  0.95186686    -0.60380
In1532     In  0.63900672  0.90320908  0.70228592     1.36870
C1533       C  0.65455886  0.84401462  0.69665493     0.77310
O1534       O  0.68236206  0.90339823  0.72999418    -0.61140
O1535       O  0.63973582  0.91713688  0.74984251    -0.52050
C1536       C  0.65064626  0.95214071  0.66830545     0.69970
O1537       O  0.65951964  0.92522616  0.66155632    -0.46910
C1538       C  0.57802795  0.89577972  0.69512760     0.74680
O1539       O  0.66589176  0.86460721  0.68006475    -0.58770
O1540       O  0.58975854  0.90590378  0.71877972    -0.48860
O1541       O  0.63530681  0.85415393  0.71527542    -0.55200
C1542       C  0.66814450  0.91060911  0.75340636     0.84860
O1543       O  0.63704206  0.95378389  0.69293634    -0.57090
O1544       O  0.59758016  0.89103340  0.67483921    -0.60380
In1545     In  0.14111921  0.60255182  0.80030175     1.36870
C1546       C  0.15326824  0.66204696  0.80781621     0.77310
O1547       O  0.18387520  0.60773413  0.77246330    -0.61140
O1548       O  0.14407815  0.58698164  0.75314725    -0.52050
C1549       C  0.15429861  0.55542900  0.83634786     0.69970
O1550       O  0.15636176  0.58326714  0.84419193    -0.46910
C1551       C  0.07942608  0.60681227  0.80492413     0.74680
O1552       O  0.16854831  0.64116335  0.82113018    -0.58770
O1553       O  0.09278907  0.59844226  0.78139560    -0.48860
O1554       O  0.13227543  0.65202270  0.79103311    -0.55200
C1555       C  0.17107796  0.59752143  0.74936983     0.84860
O1556       O  0.14724352  0.55187148  0.80953714    -0.57090
O1557       O  0.09781751  0.61150339  0.82615275    -0.60380
In1558     In  0.18694182  0.65181702  0.57504165     1.36870
C1559       C  0.12746330  0.63767650  0.56500449     0.77310
O1560       O  0.18401326  0.61404007  0.60907810    -0.61140
O1561       O  0.20633553  0.65557183  0.62075274    -0.52050
C1562       C  0.23370077  0.63626722  0.53909516     0.69970
O1563       O  0.20550350  0.63439281  0.53158799    -0.46910
C1564       C  0.18323931  0.71277586  0.56990694     0.74680
O1565       O  0.14929925  0.61872986  0.55976610    -0.58770
O1566       O  0.17878191  0.69875735  0.59391245    -0.48860
O1567       O  0.13655595  0.66327403  0.57450806    -0.55200
C1568       C  0.19647415  0.62978137  0.62930039     0.84860
O1569       O  0.23762516  0.64431863  0.56563244    -0.57090
O1570       O  0.19097621  0.69572735  0.54848073    -0.60380
In1571     In  0.13685403  0.90091245  0.55233013     1.36870
C1572       C  0.15323658  0.84202623  0.55878809     0.77310
O1573       O  0.09558103  0.89060191  0.58047632    -0.61140
O1574       O  0.08726530  0.90708463  0.53714968    -0.52050
C1575       C  0.14994988  0.94752163  0.58881921     0.69970
O1576       O  0.15274108  0.91959650  0.59613975    -0.46910
C1577       C  0.16175672  0.90805638  0.99904064     0.74680
O1578       O  0.17067508  0.86373493  0.56704806    -0.58770
O1579       O  0.13324548  0.91266310  0.00425562    -0.48860
O1580       O  0.12800418  0.85057589  0.54717318    -0.55200
C1581       C  0.07565007  0.89735734  0.56103239     0.84860
O1582       O  0.14238291  0.95151235  0.56216375    -0.57090
O1583       O  0.17786680  0.90229919  0.52170600    -0.60380
In1584     In  0.18399759  0.85288643  0.82632728     1.36870
C1585       C  0.12427131  0.86659011  0.81868865     0.77310
O1586       O  0.17091599  0.81109566  0.80043546    -0.61140
O1587       O  0.19299184  0.80431739  0.84195399    -0.52050
C1588       C  0.23254382  0.86583998  0.79170501     0.69970
O1589       O  0.20473626  0.86890047  0.78319442    -0.46910
C1590       C  0.18878641  0.88067056  0.87839052     0.74680
O1591       O  0.14557018  0.88223507  0.80667463    -0.58770
O1592       O  0.19520273  0.85248533  0.87458186    -0.48860
O1593       O  0.13385841  0.84467891  0.83462725    -0.55200
C1594       C  0.18031317  0.79215641  0.81968070     0.84860
O1595       O  0.23512843  0.85751029  0.81822589    -0.57090
O1596       O  0.18233814  0.89521910  0.85500595    -0.60380
In1597     In  0.88984938  0.65305308  0.82772696     1.36870
C1598       C  0.94880536  0.63690888  0.81869908     0.77310
O1599       O  0.89095884  0.69738738  0.80190559    -0.61140
O1600       O  0.89463991  0.69968848  0.84870827    -0.52050
C1601       C  0.84122648  0.64115845  0.79298402     0.69970
O1602       O  0.86902375  0.63714338  0.78483448    -0.46910
C1603       C  0.88241934  0.62284328  0.87836535     0.74680
O1604       O  0.92662380  0.62301903  0.80623505    -0.58770
O1605       O  0.87329664  0.65034637  0.87473493    -0.48860
O1606       O  0.94070841  0.65995256  0.83383502    -0.55200
C1607       C  0.89463509  0.71406217  0.82448326     0.84860
O1608       O  0.83856616  0.65027335  0.81938595    -0.57090
O1609       O  0.89242012  0.61004292  0.85521225    -0.60380
In1610     In  0.93536916  0.60303879  0.55121811     1.36870
C1611       C  0.91770274  0.66188302  0.55641349     0.77310
O1612       O  0.97740714  0.62200355  0.57386699    -0.61140
O1613       O  0.98462754  0.59047481  0.53861931    -0.52050
C1614       C  0.92229405  0.55646512  0.58797623     0.69970
O1615       O  0.91981245  0.58439922  0.59544451    -0.46910
C1616       C  0.90923988  0.59500930  0.99850826     0.74680
O1617       O  0.90531197  0.64052465  0.57129333    -0.58770
O1618       O  0.93807034  0.59222218  0.00307085    -0.48860
O1619       O  0.93864764  0.65263978  0.53893480    -0.55200
C1620       C  0.99664731  0.60824487  0.55742362     0.84860
O1621       O  0.93023362  0.55273121  0.56142394    -0.57090
O1622       O  0.89336929  0.59969011  0.52155453    -0.60380
In1623     In  0.88477538  0.85400300  0.57576028     1.36870
C1624       C  0.94352237  0.87237587  0.57045257     0.77310
O1625       O  0.88165898  0.89480977  0.60659158    -0.61140
O1626       O  0.87162781  0.85039802  0.62339607    -0.52050
C1627       C  0.83659461  0.86709913  0.54024307     0.69970
O1628       O  0.86441043  0.87240888  0.53328485    -0.46910
C1629       C  0.89212519  0.79344264  0.56672859     0.74680
O1630       O  0.92154638  0.88476423  0.55603867    -0.58770
O1631       O  0.87963371  0.80441357  0.58969691    -0.48860
O1632       O  0.93505731  0.85086483  0.58732509    -0.55200
C1633       C  0.87524697  0.87863737  0.62895954     0.84860
O1634       O  0.83353364  0.85653252  0.56600966    -0.57090
O1635       O  0.89972208  0.81357131  0.54805345    -0.60380
In1636     In  0.93257749  0.90194552  0.80024233     1.36870
C1637       C  0.91741734  0.84378340  0.81020342     0.77310
O1638       O  0.88971358  0.90326655  0.77126135    -0.61140
O1639       O  0.93323916  0.91332671  0.75197809    -0.52050
C1640       C  0.92268209  0.95113659  0.83478609     0.69970
O1641       O  0.90926052  0.92577563  0.83909971    -0.46910
C1642       C  0.99343281  0.89462398  0.80715409     0.74680
O1643       O  0.90511640  0.86583295  0.82443479    -0.58770
O1644       O  0.98181938  0.90850733  0.78522519    -0.48860
O1645       O  0.93713948  0.85152184  0.79103183    -0.55200
C1646       C  0.90461486  0.90918802  0.74799801     0.84860
O1647       O  0.93970127  0.95143980  0.81219353    -0.57090
O1648       O  0.97399300  0.88511000  0.82586423    -0.60380
In1649     In  0.93449864  0.40205455  0.70035583     1.36870
C1650       C  0.92168937  0.34266372  0.69227871     0.77310
O1651       O  0.97686284  0.39216718  0.67329173    -0.61140
O1652       O  0.98351817  0.40837287  0.71696099    -0.52050
C1653       C  0.92072501  0.44985655  0.66526571     0.69970
O1654       O  0.91701503  0.42216866  0.65760365    -0.46910
C1655       C  0.90566467  0.40638209  0.75208570     0.74680
O1656       O  0.90596149  0.36391357  0.68005054    -0.58770
O1657       O  0.93361543  0.41428065  0.74853086    -0.48860
O1658       O  0.94354719  0.35215653  0.70836450    -0.55200
C1659       C  0.99603115  0.39887778  0.69338173     0.84860
O1660       O  0.92959620  0.45297929  0.69165952    -0.57090
O1661       O  0.89170431  0.39916682  0.72858464    -0.60380
In1662     In  0.88650968  0.35267460  0.92564989     1.36870
C1663       C  0.94582116  0.36926014  0.93125851     0.77310
O1664       O  0.90019159  0.31225554  0.95370504    -0.61140
O1665       O  0.88066746  0.30322629  0.91167756    -0.52050
C1666       C  0.83777792  0.36611203  0.96018837     0.69970
O1667       O  0.86548678  0.37140016  0.96775856    -0.46910
C1668       C  0.87840700  0.37779657  0.87250568     0.74680
O1669       O  0.92416358  0.38256106  0.94542372    -0.58770
O1670       O  0.87493962  0.34941306  0.87762834    -0.48860
O1671       O  0.93670670  0.34773621  0.91477343    -0.55200
C1672       C  0.89273187  0.29221384  0.93484930     0.84860
O1673       O  0.83524371  0.35527581  0.93449168    -0.57090
O1674       O  0.88357858  0.39379144  0.89529059    -0.60380
In1675     In  0.93476059  0.10172078  0.95124313     1.36870
C1676       C  0.91824264  0.16080728  0.94498054     0.77310
O1677       O  0.89320148  0.10028745  0.98154602    -0.61140
O1678       O  0.93697092  0.08606937  0.49823242    -0.52050
C1679       C  0.92333322  0.05415134  0.91577613     0.69970
O1680       O  0.91395109  0.08109952  0.90995655    -0.46910
C1681       C  0.99577194  0.10842686  0.94304040     0.74680
O1682       O  0.90493212  0.13933660  0.93103544    -0.58770
O1683       O  0.98402788  0.10086164  0.96751387    -0.48860
O1684       O  0.93976660  0.15163333  0.96181435    -0.55200
C1685       C  0.90884179  0.09188141  0.50379432     0.84860
O1686       O  0.93672986  0.05122554  0.94037648    -0.57090
O1687       O  0.97609106  0.11178749  0.92259446    -0.60380
In1688     In  0.88668490  0.15225087  0.67389986     1.36870
C1689       C  0.94577007  0.13540628  0.68027160     0.77310
O1690       O  0.88577177  0.10949444  0.64567160    -0.61140
O1691       O  0.87468413  0.15254588  0.62582399    -0.52050
C1692       C  0.83863366  0.13941446  0.70908776     0.69970
O1693       O  0.86652421  0.13592688  0.71716233    -0.46910
C1694       C  0.89262152  0.21299773  0.68056644     0.74680
O1695       O  0.92416182  0.12343682  0.69527343    -0.58770
O1696       O  0.87713556  0.20135404  0.65972031    -0.48860
O1697       O  0.93669421  0.15565090  0.66209243    -0.55200
C1698       C  0.87920338  0.12399481  0.62227699     0.84860
O1699       O  0.83570037  0.14857370  0.68285912    -0.57090
O1700       O  0.90385407  0.19364221  0.69846151    -0.60380
In1701     In  0.18525416  0.15379174  0.92559500     1.36870
C1702       C  0.12698134  0.13578479  0.93239400     0.77310
O1703       O  0.16481153  0.19556330  0.94742810    -0.61140
O1704       O  0.19758617  0.20273790  0.91334949    -0.52050
C1705       C  0.23213780  0.14028974  0.96217651     0.69970
O1706       O  0.20401562  0.13845885  0.96963164    -0.46910
C1707       C  0.19320019  0.12710695  0.87327027     0.74680
O1708       O  0.14860774  0.12659601  0.94926997    -0.58770
O1709       O  0.19596106  0.15572118  0.87743667    -0.48860
O1710       O  0.13554611  0.15358830  0.91194146    -0.55200
C1711       C  0.17907327  0.21472944  0.93169231     0.84860
O1712       O  0.23610739  0.14754406  0.93550535    -0.57090
O1713       O  0.18821522  0.11169103  0.89645825    -0.60380
In1714     In  0.13812355  0.10213196  0.70171858     1.36870
C1715       C  0.15456571  0.16082564  0.69588006     0.77310
O1716       O  0.09781559  0.11653082  0.67364624    -0.61140
O1717       O  0.08825546  0.09682056  0.71556324    -0.52050
C1718       C  0.15057072  0.05378266  0.66672519     0.69970
O1719       O  0.15680607  0.08115743  0.65956981    -0.46910
C1720       C  0.16373907  0.09453753  0.75471163     0.74680
O1721       O  0.16951338  0.13909071  0.68356470    -0.58770
O1722       O  0.13528528  0.09007521  0.74967256    -0.48860
O1723       O  0.13151429  0.15218109  0.71087173    -0.55200
C1724       C  0.07751589  0.10923364  0.69242762     0.84860
O1725       O  0.13950102  0.05133029  0.69238965    -0.57090
O1726       O  0.17959698  0.10064615  0.73201838    -0.60380
In1727     In  0.13785215  0.40405027  0.95230519     1.36870
C1728       C  0.15078466  0.34482846  0.94340558     0.77310
O1729       O  0.18080624  0.39944096  0.98034878    -0.61140
O1730       O  0.13970023  0.41729842  0.50012524    -0.52050
C1731       C  0.15085054  0.45311962  0.91877772     0.69970
O1732       O  0.15620207  0.42575570  0.91054334    -0.46910
C1733       C  0.07642000  0.39959905  0.94570144     0.74680
O1734       O  0.16567753  0.36597269  0.93043447    -0.58770
O1735       O  0.08886929  0.40800211  0.96963517    -0.48860
O1736       O  0.12987799  0.35436615  0.96068965    -0.55200
C1737       C  0.16739823  0.40823312  0.50370480     0.84860
O1738       O  0.14031380  0.45505121  0.94467065    -0.57090
O1739       O  0.09553987  0.39487478  0.92500724    -0.60380
In1740     In  0.18665770  0.35155469  0.67659048     1.36870
C1741       C  0.12743874  0.36984889  0.68006604     0.77310
O1742       O  0.19045299  0.39121360  0.64465195    -0.61140
O1743       O  0.19782636  0.34574567  0.62880281    -0.52050
C1744       C  0.23444729  0.36573565  0.71201060     0.69970
O1745       O  0.20645140  0.36816375  0.72011267    -0.46910
C1746       C  0.18024618  0.29134212  0.68598958     0.74680
O1747       O  0.14880701  0.38312146  0.69447075    -0.58770
O1748       O  0.19705359  0.30181019  0.66554419    -0.48860
O1749       O  0.13688836  0.34777454  0.66428309    -0.55200
C1750       C  0.19547240  0.37400716  0.62256187     0.84860
O1751       O  0.23756699  0.35736512  0.68555547    -0.57090
O1752       O  0.16847815  0.31164321  0.70257095    -0.60380
In1753     In  0.43450925  0.40217638  0.55046277     1.36870
C1754       C  0.41989126  0.34312608  0.55798695     0.77310
O1755       O  0.39305154  0.40461813  0.51982169    -0.61140
O1756       O  0.43731842  0.41585626  0.00301429    -0.52050
C1757       C  0.42424534  0.45076714  0.58559123     0.69970
O1758       O  0.41253929  0.42470596  0.59073561    -0.46910
C1759       C  0.49552923  0.39515336  0.55780761     0.74680
O1760       O  0.40426167  0.36462078  0.56991316    -0.58770
O1761       O  0.48335594  0.40406527  0.53390056    -0.48860
O1762       O  0.44213653  0.35216854  0.54227016    -0.55200
C1763       C  0.40903829  0.41127960  0.49739975     0.84860
O1764       O  0.43948266  0.45202815  0.56188639    -0.57090
O1765       O  0.47619391  0.39053262  0.57836091    -0.60380
In1766     In  0.38802683  0.35084795  0.82719586     1.36870
C1767       C  0.44790472  0.36531563  0.82189140     0.77310
O1768       O  0.38898601  0.39454561  0.85366911    -0.61140
O1769       O  0.37558616  0.35309402  0.87518585    -0.52050
C1770       C  0.33885658  0.36428155  0.79303152     0.69970
O1771       O  0.36655633  0.36840852  0.78472741    -0.46910
C1772       C  0.39422546  0.29007849  0.82121265     0.74680
O1773       O  0.42703160  0.37697698  0.80543461    -0.58770
O1774       O  0.38071579  0.30212775  0.84317588    -0.48860
O1775       O  0.43774412  0.34615261  0.84038540    -0.55200
C1776       C  0.38226735  0.38130814  0.87762587     0.84860
O1777       O  0.33668551  0.35425186  0.81903742    -0.57090
O1778       O  0.40262112  0.30900314  0.80170117    -0.60380
In1779     In  0.68707257  0.35296312  0.57809662     1.36870
C1780       C  0.62690535  0.36643804  0.57213825     0.77310
O1781       O  0.67693591  0.31039114  0.55221421    -0.61140
O1782       O  0.69319359  0.30470142  0.59602110    -0.52050
C1783       C  0.73496945  0.36616937  0.54282930     0.69970
O1784       O  0.70699165  0.36985497  0.53504342    -0.46910
C1785       C  0.69321371  0.38414659  0.62801888     0.74680
O1786       O  0.64758222  0.37857481  0.55607669    -0.58770
O1787       O  0.70123430  0.35617459  0.62551880    -0.48860
O1788       O  0.63737599  0.34727698  0.59061892    -0.55200
C1789       C  0.68351879  0.29182106  0.57278572     0.84860
O1790       O  0.73815675  0.35691952  0.56904612    -0.57090
O1791       O  0.68499215  0.39691267  0.60418340    -0.60380
In1792     In  0.63977981  0.40283012  0.80030068     1.36870
C1793       C  0.65732843  0.34427753  0.80723037     0.77310
O1794       O  0.59870420  0.38922074  0.82816096    -0.61140
O1795       O  0.59030770  0.40633013  0.78506397    -0.52050
C1796       C  0.64926321  0.45100651  0.83530756     0.69970
O1797       O  0.66160766  0.42507187  0.84041394    -0.46910
C1798       C  0.66529160  0.41247998  0.74755166     0.74680
O1799       O  0.67066477  0.36596117  0.82083397    -0.58770
O1800       O  0.63651421  0.41456697  0.75238749    -0.48860
O1801       O  0.63564264  0.35298815  0.79037044    -0.55200
C1802       C  0.57878092  0.39564872  0.80849860     0.84860
O1803       O  0.63407916  0.45260875  0.81157541    -0.57090
O1804       O  0.68141763  0.40788748  0.77043371    -0.60380
In1805     In  0.68449721  0.15207622  0.82280435     1.36870
C1806       C  0.62773946  0.13228512  0.80943225     0.77310
O1807       O  0.69160876  0.11358730  0.85615301    -0.61140
O1808       O  0.67872215  0.15820519  0.87127359    -0.52050
C1809       C  0.73417176  0.13901384  0.78956927     0.69970
O1810       O  0.70661586  0.13661480  0.78031929    -0.46910
C1811       C  0.68162885  0.21291836  0.81612333     0.74680
O1812       O  0.65130520  0.11477346  0.80804624    -0.58770
O1813       O  0.69623279  0.20059761  0.83738714    -0.48860
O1814       O  0.63340833  0.15958362  0.81697209    -0.55200
C1815       C  0.68381534  0.13034525  0.87774498     0.84860
O1816       O  0.73605780  0.14692305  0.81629890    -0.57090
O1817       O  0.67080226  0.19404990  0.79761773    -0.60380
In1818     In  0.63788990  0.10323616  0.55220207     1.36870
C1819       C  0.65483922  0.16190699  0.56010648     0.77310
O1820       O  0.67562238  0.10531489  0.51772234    -0.61140
O1821       O  0.63251131  0.08423342  0.00675108    -0.52050
C1822       C  0.65119132  0.05790918  0.58999996     0.69970
O1823       O  0.64825133  0.08571910  0.59767829    -0.46910
C1824       C  0.57623619  0.10727942  0.55502272     0.74680
O1825       O  0.67224583  0.13966073  0.56773241    -0.58770
O1826       O  0.59109672  0.10832222  0.53112535    -0.48860
O1827       O  0.62895942  0.15380656  0.55001534    -0.55200
C1828       C  0.65805205  0.09482775  0.49776196     0.84860
O1829       O  0.64997405  0.05356216  0.56243444    -0.57090
O1830       O  0.59270676  0.10267148  0.57766575    -0.60380
In1831     In  0.38743308  0.15285145  0.57457029     1.36870
C1832       C  0.44554345  0.13388467  0.56607767     0.77310
O1833       O  0.40428006  0.19422188  0.54997302    -0.61140
O1834       O  0.37552717  0.20166366  0.58760229    -0.52050
C1835       C  0.33950599  0.13962879  0.53914012     0.69970
O1836       O  0.36740894  0.13747086  0.53091417    -0.46910
C1837       C  0.38243121  0.13143516  0.62957196     0.74680
O1838       O  0.42265969  0.11653038  0.56092842    -0.58770
O1839       O  0.38140779  0.15971824  0.62309621    -0.48860
O1840       O  0.43845358  0.16041898  0.57532304    -0.55200
C1841       C  0.39169261  0.21341893  0.56728934     0.84860
O1842       O  0.33649697  0.14731400  0.56582084    -0.57090
O1843       O  0.38449200  0.11387376  0.60743262    -0.60380
In1844     In  0.43577609  0.10025831  0.80209799     1.36870
C1845       C  0.42180077  0.15912978  0.81406083     0.77310
O1846       O  0.48212291  0.09861065  0.82578555    -0.61140
O1847       O  0.48208285  0.10192286  0.77908432    -0.52050
C1848       C  0.42123295  0.05263371  0.83644043     0.69970
O1849       O  0.42340720  0.07984487  0.84600700    -0.46910
C1850       C  0.40702856  0.09925363  0.75045365     0.74680
O1851       O  0.40471739  0.13712458  0.82218376    -0.58770
O1852       O  0.43274574  0.08561095  0.75449134    -0.48860
O1853       O  0.44656520  0.15052328  0.80158814    -0.55200
C1854       C  0.49800929  0.10116876  0.80250118     0.84860
O1855       O  0.42452956  0.04985072  0.80887418    -0.57090
O1856       O  0.39444322  0.10969651  0.77355482    -0.60380
C1857       C  0.39548680  0.08274639  0.69898036    -0.20580
C1858       C  0.39466546  0.10583872  0.72068439    -0.07150
C1859       C  0.38620046  0.13632235  0.71270801     0.13720
C1860       C  0.38036147  0.14322213  0.68298802    -0.20630
C1861       C  0.38308223  0.12066040  0.66078453    -0.07150
C1862       C  0.38938160  0.08962334  0.66910795     0.13710
C1863       C  0.39057319  0.06371993  0.64686471    -0.23980
H1864       H  0.40188259  0.05942399  0.70533444     0.15000
H1865       H  0.37508116  0.16689678  0.67695542     0.15030
C1866       C  0.38556261  0.16230062  0.73501743    -0.23930
H1867       H  0.39475773  0.04100771  0.65761000     0.05240
H1868       H  0.40977985  0.06751744  0.63094523     0.08470
H1869       H  0.36804495  0.06242165  0.63488948     0.08470
H1870       H  0.40875835  0.16452086  0.74563683     0.08450
H1871       H  0.36771336  0.15771321  0.75215250     0.08450
H1872       H  0.37972556  0.18484249  0.72462491     0.05230
C1873       C  0.52294647  0.09089146  0.56876173    -0.20580
C1874       C  0.54257320  0.11313744  0.55640196    -0.07150
C1875       C  0.53002157  0.14142069  0.54627693     0.13720
C1876       C  0.49807174  0.14700508  0.54911130    -0.20630
C1877       C  0.47829458  0.12487600  0.56142511    -0.07150
C1878       C  0.49072481  0.09630980  0.57110998     0.13710
C1879       C  0.47041146  0.07219875  0.58507820    -0.23980
H1880       H  0.53287924  0.06933239  0.57662431     0.15000
H1881       H  0.48846293  0.16898918  0.54196438     0.15030
C1882       C  0.55044714  0.16637741  0.53376610    -0.23930
H1883       H  0.48412463  0.05167983  0.59222173     0.05240
H1884       H  0.45265715  0.06434457  0.56895608     0.08470
H1885       H  0.45865620  0.08205730  0.60483100     0.08470
H1886       H  0.56236699  0.15793202  0.51352258     0.08450
H1887       H  0.56803856  0.17315940  0.55049692     0.08450
H1888       H  0.53683664  0.18734120  0.52771295     0.05230
C1889       C  0.65193437  0.13076484  0.92244516    -0.20580
C1890       C  0.67796772  0.11855453  0.90785058    -0.07150
C1891       C  0.69670484  0.09609007  0.92221090     0.13720
C1892       C  0.68986645  0.08793200  0.95172001    -0.20630
C1893       C  0.66376753  0.10049088  0.96615482    -0.07150
C1894       C  0.64420146  0.12156406  0.95103654     0.13710
C1895       C  0.61536577  0.13510331  0.96521929    -0.23980
H1896       H  0.63718150  0.14743076  0.91117275     0.15000
H1897       H  0.70478731  0.07182397  0.96349201     0.15030
C1898       C  0.72421741  0.08150058  0.90691351    -0.23930
H1899       H  0.60373499  0.15242722  0.95077992     0.05240
H1900       H  0.62144867  0.14663540  0.98629927     0.08470
H1901       H  0.59842266  0.11648081  0.96969266     0.08470
H1902       H  0.74075367  0.09964913  0.89990401     0.08450
H1903       H  0.71624187  0.06844173  0.88721315     0.08450
H1904       H  0.73679133  0.06512082  0.92165701     0.05230
C1905       C  0.58433283  0.09807692  0.82239821    -0.20580
C1906       C  0.59571147  0.12168240  0.80441912    -0.07150
C1907       C  0.57549977  0.13667793  0.78433761     0.13720
C1908       C  0.54408768  0.12819195  0.78325684    -0.20630
C1909       C  0.53213762  0.10583642  0.80251034    -0.07150
C1910       C  0.55269104  0.09026697  0.82204128     0.13710
C1911       C  0.54169784  0.06524185  0.84231212    -0.23980
H1912       H  0.60002338  0.08669437  0.83778334     0.15000
H1913       H  0.52845022  0.14014500  0.76822784     0.15030
C1914       C  0.58691847  0.16176026  0.76419123    -0.23930
H1915       H  0.56110281  0.05488916  0.85527803     0.05240
H1916       H  0.53109482  0.04661463  0.82893554     0.08470
H1917       H  0.52471883  0.07497612  0.85826936     0.08470
H1918       H  0.60661892  0.15300565  0.75062784     0.08450
H1919       H  0.59464943  0.18156281  0.77764854     0.08450
H1920       H  0.56835836  0.17015398  0.74902182     0.05230
C1921       C  0.64182568  0.29003926  0.80273384    -0.20580
C1922       C  0.66502762  0.31104081  0.81069194    -0.07150
C1923       C  0.69417513  0.29962017  0.82069911     0.13720
C1924       C  0.69912333  0.26743188  0.82241343    -0.20630
C1925       C  0.67592116  0.24658437  0.81377275    -0.07150
C1926       C  0.64682590  0.25819728  0.80401593     0.13710
C1927       C  0.62043249  0.23731256  0.79549521    -0.23980
H1928       H  0.61934701  0.29860262  0.79539495     0.15000
H1929       H  0.72133815  0.25849680  0.83005244     0.15030
C1930       C  0.72032606  0.32099152  0.82878418    -0.23930
H1931       H  0.59880320  0.25041716  0.79026237     0.05240
H1932       H  0.61511617  0.22138980  0.81402218     0.08470
H1933       H  0.62696386  0.22410754  0.77539736     0.08470
H1934       H  0.71345081  0.33551633  0.84795446     0.08450
H1935       H  0.72599993  0.33597028  0.80962921     0.08450
H1936       H  0.74175382  0.30804114  0.83501478     0.05230
C1937       C  0.66036912  0.24813455  0.54578306    -0.20580
C1938       C  0.67853780  0.25803729  0.56971991    -0.07150
C1939       C  0.69033888  0.23572024  0.58984739     0.13720
C1940       C  0.68290173  0.20437249  0.58577218    -0.20630
C1941       C  0.66366543  0.19483789  0.56244158    -0.07150
C1942       C  0.65280230  0.21705453  0.54182063     0.13710
C1943       C  0.63416512  0.20831531  0.51483791    -0.23980
H1944       H  0.65152193  0.26495878  0.53009011     0.15000
H1945       H  0.69152448  0.18729540  0.60132126     0.15030
C1946       C  0.71083403  0.24450066  0.61551042    -0.23930
H1947       H  0.62940383  0.22849324  0.00032608     0.05240
H1948       H  0.61131882  0.19879906  0.52137538     0.08470
H1949       H  0.64747284  0.19113063  0.00165128     0.08470
H1950       H  0.69775605  0.25959909  0.63104861     0.08450
H1951       H  0.73175640  0.25670144  0.60730080     0.08450
H1952       H  0.71887291  0.22392414  0.62811145     0.05230
C1953       C  0.71182028  0.39054508  0.67940836    -0.20580
C1954       C  0.69078154  0.39932893  0.65718217    -0.07150
C1955       C  0.66463327  0.41778476  0.66463840     0.13720
C1956       C  0.65869187  0.42435259  0.69447120    -0.20630
C1957       C  0.67794724  0.41273557  0.71705294    -0.07150
C1958       C  0.70587846  0.39712122  0.70930178     0.13710
C1959       C  0.72852648  0.38542097  0.73225136    -0.23980
H1960       H  0.73203946  0.37676884  0.67350095     0.15000
H1961       H  0.63763694  0.43687379  0.70030291     0.15030
C1962       C  0.64141990  0.42845537  0.64169088    -0.23930
H1963       H  0.74917512  0.37414923  0.72201017     0.05240
H1964       H  0.71713231  0.36806429  0.74660354     0.08470
H1965       H  0.73694090  0.40500524  0.74587030     0.08470
H1966       H  0.63109599  0.40823105  0.63032962     0.08450
H1967       H  0.65312862  0.44342687  0.62525517     0.08450
H1968       H  0.62206300  0.44203411  0.65166105     0.05230
C1969       C  0.37830491  0.23540870  0.82766547    -0.20580
C1970       C  0.40105360  0.25667208  0.81913247    -0.07150
C1971       C  0.43056985  0.24579898  0.80991987     0.13720
C1972       C  0.43654836  0.21398752  0.80941633    -0.20630
C1973       C  0.41375064  0.19242853  0.81740693    -0.07150
C1974       C  0.38402622  0.20337425  0.82645022     0.13710
C1975       C  0.35798959  0.18174200  0.83424418    -0.23980
H1976       H  0.35574001  0.24393594  0.83477261     0.15000
H1977       H  0.45932148  0.20594502  0.80242769     0.15030
C1978       C  0.45630942  0.26758911  0.80144158    -0.23930
H1979       H  0.33637336  0.19444595  0.84033466     0.05240
H1980       H  0.36484142  0.16724109  0.85343578     0.08470
H1981       H  0.35250631  0.16683209  0.81496532     0.08470
H1982       H  0.46091928  0.28378699  0.81992230     0.08450
H1983       H  0.44961547  0.28081387  0.78138749     0.08450
H1984       H  0.47835255  0.25510346  0.79641986     0.05230
C1985       C  0.49051465  0.39440217  0.79757807    -0.20580
C1986       C  0.48144719  0.37355839  0.81969028    -0.07150
C1987       C  0.50455812  0.36140383  0.83903710     0.13720
C1988       C  0.53579810  0.36972191  0.83504367    -0.20630
C1989       C  0.54494840  0.38976633  0.81234246    -0.07150
C1990       C  0.52180008  0.40269357  0.79362416     0.13710
C1991       C  0.52954269  0.42556571  0.76965216    -0.23980
H1992       H  0.47299928  0.40417567  0.78301450     0.15000
H1993       H  0.55337626  0.35992919  0.84954196     0.15030
C1994       C  0.49697139  0.33964008  0.86402182    -0.23930
H1995       H  0.50831702  0.43450346  0.75842150     0.05240
H1996       H  0.54426995  0.41437281  0.75252176     0.08470
H1997       H  0.54190324  0.44560302  0.77935059     0.08470
H1998       H  0.48686041  0.31805502  0.85512589     0.08450
H1999       H  0.48039414  0.35086245  0.87955477     0.08450
H2000       H  0.51799278  0.33303970  0.87693152     0.05230
C2001       C  0.58338832  0.39166216  0.54500967    -0.20580
C2002       C  0.59322863  0.37408143  0.56940842    -0.07150
C2003       C  0.57076705  0.36446062  0.59041904     0.13720
C2004       C  0.53936065  0.37232215  0.58610165    -0.20630
C2005       C  0.52943826  0.38929700  0.56136199    -0.07150
C2006       C  0.55190863  0.39928506  0.54057375     0.13710
C2007       C  0.54326600  0.41816216  0.51373711    -0.23980
H2008       H  0.60044235  0.39923329  0.52897848     0.15000
H2009       H  0.52228176  0.36460821  0.60205654     0.15030
C2010       C  0.57930898  0.34604778  0.61759969    -0.23930
H2011       H  0.56406582  0.42495824  0.00077422     0.05240
H2012       H  0.53106544  0.43966017  0.52068025     0.08470
H2013       H  0.52811394  0.40451581  0.99883355     0.08470
H2014       H  0.59637941  0.35898611  0.63115292     0.08450
H2015       H  0.58921881  0.32331390  0.61105293     0.08450
H2016       H  0.55875975  0.34148091  0.63179033     0.05230
C2017       C  0.41758937  0.42031534  0.94405274    -0.20580
C2018       C  0.39713737  0.41093845  0.96652517    -0.07150
C2019       C  0.36852999  0.39709243  0.95847395     0.13720
C2020       C  0.36303703  0.38978549  0.92863491    -0.20630
C2021       C  0.38503163  0.39643974  0.90672575    -0.07150
C2022       C  0.41204344  0.41310000  0.91431549     0.13710
C2023       C  0.43645111  0.42105344  0.89163264    -0.23980
H2024       H  0.43919308  0.43153603  0.94993194     0.15000
H2025       H  0.34218733  0.37735467  0.92254651     0.15030
C2026       C  0.34431619  0.38847513  0.98104148    -0.23930
H2027       H  0.45651739  0.43323403  0.90167483     0.05240
H2028       H  0.42623699  0.43643415  0.87451203     0.08470
H2029       H  0.44548592  0.39965964  0.88106416     0.08470
H2030       H  0.33732595  0.40924531  0.99390707     0.08450
H2031       H  0.35364206  0.37043977  0.49612205     0.08450
H2032       H  0.32304826  0.37907097  0.97047279     0.05230
C2033       C  0.42884636  0.25600197  0.56323180    -0.20580
C2034       C  0.39776011  0.24676554  0.56517250    -0.07150
C2035       C  0.37383937  0.26925977  0.56569571     0.13720
C2036       C  0.38168160  0.30069115  0.56394948    -0.20630
C2037       C  0.41285563  0.30995656  0.56158897    -0.07150
C2038       C  0.43679556  0.28726530  0.56174139     0.13710
C2039       C  0.47083155  0.29569201  0.56137454    -0.23980
H2040       H  0.44709246  0.23856548  0.56335050     0.15000
H2041       H  0.36338886  0.31804207  0.56372728     0.15030
C2042       C  0.34011991  0.26011560  0.56691414    -0.23930
H2043       H  0.48610392  0.27507550  0.56405362     0.05240
H2044       H  0.47595485  0.31182290  0.57983118     0.08470
H2045       H  0.47696527  0.30658850  0.53999120     0.08470
H2046       H  0.33536676  0.24762248  0.58782328     0.08450
H2047       H  0.33459171  0.24491426  0.54785200     0.08450
H2048       H  0.32439226  0.28055695  0.56597798     0.05230
C2049       C  0.25572338  0.36897771  0.76299055    -0.20580
C2050       C  0.26124606  0.37024177  0.73241210    -0.07150
C2051       C  0.29228485  0.37347092  0.72230624     0.13720
C2052       C  0.31683715  0.37304764  0.74285856    -0.20630
C2053       C  0.31147447  0.36916915  0.77327238    -0.07150
C2054       C  0.28028504  0.36823885  0.78353605     0.13710
C2055       C  0.27237936  0.36615442  0.81596538    -0.23980
H2056       H  0.23200902  0.36712693  0.77089738     0.15000
H2057       H  0.34055061  0.37450223  0.73487901     0.15030
C2058       C  0.30000310  0.37726267  0.68998099    -0.23930
H2059       H  0.24688075  0.36756580  0.81982708     0.05240
H2060       H  0.28331883  0.38553373  0.82813923     0.08470
H2061       H  0.28057688  0.34375341  0.82509859     0.08470
H2062       H  0.28678023  0.39714919  0.68070428     0.08450
H2063       H  0.29428352  0.35589283  0.67764568     0.08450
H2064       H  0.32515895  0.38172470  0.68650265     0.05230
C2065       C  0.19865374  0.37720070  0.53852808    -0.20580
C2066       C  0.18150589  0.40433110  0.53329384    -0.07150
C2067       C  0.17451938  0.42417240  0.55720249     0.13720
C2068       C  0.18197287  0.41475609  0.58608727    -0.20630
C2069       C  0.19558448  0.38569921  0.59167584    -0.07150
C2070       C  0.20549287  0.36736216  0.56738658     0.13710
C2071       C  0.22240781  0.33700053  0.57140250    -0.23980
H2072       H  0.20454205  0.36228169  0.52004929     0.15000
H2073       H  0.17518806  0.42936473  0.60449195     0.15030
C2074       C  0.15904194  0.45511534  0.55243969    -0.23930
H2075       H  0.23043616  0.32729128  0.54995237     0.05240
H2076       H  0.20674642  0.31971965  0.58151429     0.08470
H2077       H  0.24322723  0.34034035  0.58557332     0.08470
H2078       H  0.13511594  0.45211348  0.54377503     0.08450
H2079       H  0.17287951  0.46889350  0.53653202     0.08450
H2080       H  0.15724388  0.46844922  0.57337059     0.05230
C2081       C  0.13841976  0.21560612  0.69804003    -0.20580
C2082       C  0.16237720  0.19398646  0.69302894    -0.07150
C2083       C  0.19261156  0.20467153  0.68623699     0.13720
C2084       C  0.19784807  0.23662948  0.68427431    -0.20630
C2085       C  0.17383634  0.25809004  0.68944301    -0.07150
C2086       C  0.14367485  0.24742070  0.69629063     0.13710
C2087       C  0.11655014  0.26930812  0.70058177    -0.23980
H2088       H  0.11519170  0.20755972  0.70306473     0.15000
H2089       H  0.22089597  0.24495540  0.67894389     0.15030
C2090       C  0.21961408  0.18276772  0.68182172    -0.23930
H2091       H  0.09437985  0.25680335  0.70408458     0.05240
H2092       H  0.11368697  0.28407455  0.68068750     0.08470
H2093       H  0.12050927  0.28402936  0.72029497     0.08470
H2094       H  0.21540831  0.16798471  0.66219405     0.08450
H2095       H  0.22264037  0.16810125  0.70177693     0.08450
H2096       H  0.24173793  0.19527275  0.67807621     0.05230
C2097       C  0.28242086  0.13975777  0.53147508    -0.20580
C2098       C  0.31222718  0.13523375  0.51934294    -0.07150
C2099       C  0.31492761  0.12895310  0.98866781     0.13720
C2100       C  0.28806521  0.12933487  0.97095673    -0.20630
C2101       C  0.25854577  0.13570262  0.98288355    -0.07150
C2102       C  0.25561401  0.14018626  0.51377352     0.13710
C2103       C  0.22468786  0.14693739  0.52826589    -0.23980
H2104       H  0.28006524  0.14414815  0.55498268     0.15000
H2105       H  0.29026827  0.12543334  0.94734934     0.15030
C2106       C  0.34583652  0.12247170  0.97408223    -0.23930
H2107       H  0.22705798  0.15052329  0.55249376     0.05240
H2108       H  0.20872369  0.12721639  0.52488734     0.08470
H2109       H  0.21429889  0.16828740  0.51876286     0.08470
H2110       H  0.35717057  0.10217989  0.98467419     0.08450
H2111       H  0.36107197  0.14295936  0.97593382     0.08450
H2112       H  0.34318915  0.11720031  0.95016400     0.05230
C2113       C  0.14249155  0.25757650  0.94101020    -0.20580
C2114       C  0.17287857  0.24824487  0.93387856    -0.07150
C2115       C  0.19589277  0.27083244  0.92901910     0.13720
C2116       C  0.18787126  0.30224064  0.93175131    -0.20630
C2117       C  0.15750977  0.31153653  0.93933120    -0.07150
C2118       C  0.13438275  0.28881865  0.94361225     0.13710
C2119       C  0.10087316  0.29707568  0.95011796    -0.23980
H2120       H  0.12477961  0.24020643  0.94427746     0.15000
H2121       H  0.20557567  0.31961139  0.92856156     0.15030
C2122       C  0.22907775  0.26203550  0.92205656    -0.23930
H2123       H  0.08578402  0.27636478  0.95046078     0.05240
H2124       H  0.09173641  0.31291984  0.93280540     0.08470
H2125       H  0.09896504  0.30817947  0.97216277     0.08470
H2126       H  0.23017760  0.24977102  0.90052958     0.08450
H2127       H  0.23850082  0.24686907  0.93977772     0.08450
H2128       H  0.24424436  0.28262125  0.92045969     0.05230
C2129       C  0.17143313  0.08925393  0.83814485    -0.20580
C2130       C  0.19235415  0.11341564  0.84330866    -0.07150
C2131       C  0.20837119  0.12653815  0.81912269     0.13720
C2132       C  0.20059521  0.11740975  0.79028813    -0.20630
C2133       C  0.17666513  0.09618668  0.78502372    -0.07150
C2134       C  0.16306307  0.08069004  0.80927719     0.13710
C2135       C  0.13937365  0.05556123  0.80503396    -0.23980
H2136       H  0.15968764  0.07865775  0.85672904     0.15000
H2137       H  0.21161919  0.12877348  0.77172071     0.15030
C2138       C  0.23326118  0.15050237  0.82340820    -0.23930
H2139       H  0.13320408  0.04440529  0.82633415     0.05240
H2140       H  0.14895911  0.03745213  0.79014414     0.08470
H2141       H  0.11759459  0.06520386  0.79551917     0.08470
H2142       H  0.25127948  0.14160223  0.83888789     0.08450
H2143       H  0.22302450  0.17218481  0.83225526     0.08450
H2144       H  0.24493326  0.15629796  0.80223293     0.05230
C2145       C  0.81732193  0.13488808  0.75987496    -0.20580
C2146       C  0.81179397  0.13485307  0.72925481    -0.07150
C2147       C  0.78078109  0.13235896  0.71890659     0.13720
C2148       C  0.75626078  0.13212066  0.73936815    -0.20630
C2149       C  0.76161875  0.13467336  0.76992860    -0.07150
C2150       C  0.79275073  0.13500513  0.78035976     0.13710
C2151       C  0.80056051  0.13586691  0.81287167    -0.23980
H2152       H  0.84104501  0.13619147  0.76790370     0.15000
H2153       H  0.73256472  0.13117232  0.73122563     0.15030
C2154       C  0.77303694  0.13004662  0.68643090    -0.23930
H2155       H  0.82605158  0.13436561  0.81678849     0.05240
H2156       H  0.78962541  0.11601616  0.82428691     0.08470
H2157       H  0.79226614  0.15788524  0.82276704     0.08470
H2158       H  0.78601093  0.11041227  0.67637814     0.08450
H2159       H  0.77903075  0.15185794  0.67498764     0.08450
H2160       H  0.74782879  0.12605609  0.68271072     0.05230
C2161       C  0.00099892  0.14728055  0.67054915    -0.20580
C2162       C  0.97925404  0.12737747  0.68356529    -0.07150
C2163       C  0.99015207  0.10097574  0.69903580     0.13720
C2164       C  0.02236115  0.09553553  0.70124653    -0.20630
C2165       C  0.04394051  0.11549243  0.68818370    -0.07150
C2166       C  0.03308221  0.14179902  0.67267067     0.13710
C2167       C  0.05502390  0.16496507  0.65926646    -0.23980
H2168       H  0.99289023  0.16765788  0.65887356     0.15000
H2169       H  0.03078864  0.07545050  0.71318395     0.15030
C2170       C  0.96827150  0.07817364  0.71296172    -0.23930
H2171       H  0.04236891  0.18495826  0.64949171     0.05240
H2172       H  0.06876837  0.15397544  0.64130596     0.08470
H2173       H  0.07092649  0.17399825  0.67654935     0.08470
H2174       H  0.95239286  0.06869709  0.69588280     0.08450
H2175       H  0.95454744  0.08963114  0.73067845     0.08450
H2176       H  0.98098088  0.05845036  0.72316250     0.05230
C2177       C  0.04828195  0.11491176  0.96498005    -0.20580
C2178       C  0.02968058  0.11386892  0.93937071    -0.07150
C2179       C  0.04379915  0.11908163  0.91148616     0.13720
C2180       C  0.07571142  0.12540673  0.91016796    -0.20630
C2181       C  0.09406562  0.12680828  0.93576131    -0.07150
C2182       C  0.08019065  0.12147986  0.96358994     0.13710
C2183       C  0.09842257  0.12402052  0.99197743    -0.23980
H2184       H  0.03767698  0.11123706  0.98642863     0.15000
H2185       H  0.08647320  0.12948886  0.88884380     0.15030
C2186       C  0.02583198  0.11803865  0.88288183    -0.23930
H2187       H  0.08344387  0.12061429  0.51170622     0.05240
H2188       H  0.10895042  0.14730200  0.99365911     0.08470
H2189       H  0.11701159  0.10611558  0.49257605     0.08470
H2190       H  0.00755783  0.13627242  0.88269838     0.08450
H2191       H  0.01523863  0.09499166  0.88022347     0.08450
H2192       H  0.04100945  0.12198532  0.86338573     0.05230
C2193       C  0.87009827  0.11139474  0.53988008    -0.20580
C2194       C  0.89620525  0.09250969  0.53433178    -0.07150
C2195       C  0.91197872  0.07875340  0.55857732     0.13720
C2196       C  0.90351393  0.08718754  0.58746714    -0.20630
C2197       C  0.88032017  0.10949078  0.59269319    -0.07150
C2198       C  0.86213723  0.12033085  0.56876229     0.13710
C2199       C  0.83464623  0.14160828  0.57343331    -0.23980
H2200       H  0.85726322  0.12121914  0.52146160     0.15000
H2201       H  0.91690083  0.07822606  0.60595035     0.15030
C2202       C  0.93831548  0.05594711  0.55442617    -0.23930
H2203       H  0.82177804  0.14587295  0.55249603     0.05240
H2204       H  0.84242446  0.16430805  0.58188621     0.08470
H2205       H  0.81825999  0.13107290  0.58943411     0.08470
H2206       H  0.95888575  0.06753527  0.54481150     0.08450
H2207       H  0.93071890  0.03686449  0.53975296     0.08450
H2208       H  0.94582064  0.04562387  0.57578218     0.05230
C2209       C  0.81692523  0.37298553  0.51097909    -0.20580
C2210       C  0.81088455  0.37042274  0.98053300    -0.07150
C2211       C  0.77953100  0.37000400  0.97074810     0.13720
C2212       C  0.75540490  0.37030314  0.99169610    -0.20630
C2213       C  0.76154311  0.37047958  0.52221457    -0.07150
C2214       C  0.79280615  0.37279565  0.53194259     0.13710
C2215       C  0.80119916  0.37497018  0.56426729    -0.23980
H2216       H  0.84081944  0.37382598  0.51859785     0.15000
H2217       H  0.73152287  0.36903772  0.98410073     0.15030
C2218       C  0.77102992  0.36905570  0.93839006    -0.23930
H2219       H  0.82651824  0.37869882  0.56753853     0.05240
H2220       H  0.79517896  0.35320263  0.57577522     0.08470
H2221       H  0.78860983  0.39470608  0.57457027     0.08470
H2222       H  0.77878359  0.34686840  0.92845757     0.08450
H2223       H  0.78201306  0.38867081  0.92664914     0.08450
H2224       H  0.74548320  0.37088539  0.93495162     0.05230
C2225       C  0.88128194  0.23777863  0.92164296    -0.20580
C2226       C  0.89835648  0.25863561  0.93894290    -0.07150
C2227       C  0.92146443  0.24702871  0.95840296     0.13720
C2228       C  0.92686739  0.21511445  0.95982307    -0.20630
C2229       C  0.91004697  0.19415838  0.94235583    -0.07150
C2230       C  0.88668187  0.20574957  0.92310658     0.13710
C2231       C  0.86741964  0.18485192  0.90384886    -0.23980
H2232       H  0.86359954  0.24662815  0.90671762     0.15000
H2233       H  0.94477368  0.20652958  0.97464141     0.15030
C2234       C  0.94139990  0.26793537  0.97710418    -0.23930
H2235       H  0.85028872  0.19803224  0.89034480     0.05240
H2236       H  0.85420800  0.16848470  0.91784729     0.08470
H2237       H  0.88275333  0.17190361  0.88838305     0.08470
H2238       H  0.92664746  0.28074227  0.99316166     0.08450
H2239       H  0.95403679  0.28443058  0.96274461     0.08450
H2240       H  0.95905957  0.25478580  0.99001009     0.05230
C2241       C  0.98829849  0.39680630  0.95764568    -0.20580
C2242       C  0.97916366  0.37787589  0.93396471    -0.07150
C2243       C  0.00211380  0.36742079  0.91366488     0.13720
C2244       C  0.03325257  0.37572017  0.91796867    -0.20630
C2245       C  0.04255922  0.39385915  0.94208965    -0.07150
C2246       C  0.01964606  0.40475731  0.96213714     0.13710
C2247       C  0.02777522  0.42492237  0.98815604    -0.23980
H2248       H  0.97085854  0.40500937  0.97313012     0.15000
H2249       H  0.05066616  0.36727090  0.90256640     0.15030
C2250       C  0.99436911  0.34764913  0.88719547    -0.23930
H2251       H  0.00673435  0.43239365  0.00057994     0.05240
H2252       H  0.03983554  0.44598790  0.98035710     0.08470
H2253       H  0.04296931  0.41200844  0.00376546     0.08470
H2254       H  0.97685007  0.35960982  0.87313249     0.08450
H2255       H  0.98533747  0.32498335  0.89457961     0.08450
H2256       H  0.01512613  0.34292760  0.87322959     0.05230
C2257       C  0.03988040  0.37490218  0.66628926    -0.20580
C2258       C  0.03009527  0.39406666  0.68957433    -0.07150
C2259       C  0.05279244  0.40679640  0.70868058     0.13720
C2260       C  0.08437482  0.39910557  0.70449374    -0.20630
C2261       C  0.09397419  0.37881181  0.68194304    -0.07150
C2262       C  0.07126057  0.36698484  0.66221122     0.13710
C2263       C  0.07944673  0.34600947  0.63664700    -0.23980
H2264       H  0.02266182  0.36524069  0.65146375     0.15000
H2265       H  0.10162458  0.40851793  0.71942098     0.15030
C2266       C  0.04416585  0.42861493  0.73337208    -0.23930
H2267       H  0.05879068  0.34042855  0.62291048     0.05240
H2268       H  0.08901124  0.32380288  0.64499993     0.08470
H2269       H  0.09664558  0.35742881  0.62204826     0.08470
H2270       H  0.02964747  0.41654933  0.74996401     0.08450
H2271       H  0.03121114  0.44877329  0.72430025     0.08450
H2272       H  0.06504648  0.43745127  0.74503941     0.05230
C2273       C  0.90095363  0.42364595  0.80417701    -0.20580
C2274       C  0.89170736  0.40321641  0.78181773    -0.07150
C2275       C  0.87344113  0.37732290  0.78930551     0.13720
C2276       C  0.86717241  0.37123605  0.81917101    -0.20630
C2277       C  0.87881901  0.39012882  0.84183683    -0.07150
C2278       C  0.89457508  0.41762757  0.83410353     0.13710
C2279       C  0.90639053  0.43989184  0.85707754    -0.23980
H2280       H  0.91463982  0.44364086  0.79828569     0.15000
H2281       H  0.85461111  0.35047998  0.82492310     0.15030
C2282       C  0.86252941  0.35460841  0.76626952    -0.23930
H2283       H  0.91774180  0.46022471  0.84686469     0.05240
H2284       H  0.92390318  0.42830042  0.87141118     0.08470
H2285       H  0.88666563  0.44852585  0.87069520     0.08470
H2286       H  0.88283678  0.34449743  0.75444221     0.08450
H2287       H  0.84693972  0.36644039  0.75023035     0.08450
H2288       H  0.84930007  0.33529819  0.77624099     0.05230
C2289       C  0.88437562  0.30062140  0.68092848    -0.20580
C2290       C  0.91477712  0.30936778  0.68863026    -0.07150
C2291       C  0.93771741  0.28612565  0.69316161     0.13720
C2292       C  0.92940275  0.25500794  0.69060760    -0.20630
C2293       C  0.89905360  0.24633303  0.68312196    -0.07150
C2294       C  0.87622798  0.26936303  0.67809970     0.13710
C2295       C  0.84309095  0.26109879  0.67085888    -0.23980
H2296       H  0.86675731  0.31830321  0.67757869     0.15000
H2297       H  0.94691588  0.23721267  0.69404314     0.15030
C2298       C  0.97124010  0.29365438  0.69985669    -0.23930
H2299       H  0.82799586  0.28193796  0.66901802     0.05240
H2300       H  0.83349176  0.24616936  0.68855713     0.08470
H2301       H  0.84216361  0.24868946  0.64940767     0.08470
H2302       H  0.97306147  0.30499144  0.72179058     0.08450
H2303       H  0.98065595  0.30905396  0.68243650     0.08450
H2304       H  0.98613042  0.27259106  0.70055678     0.05230
C2305       C  0.94664090  0.99749823  0.85635617    -0.20580
C2306       C  0.92073911  0.97796226  0.85510698    -0.07150
C2307       C  0.89472769  0.98431305  0.87346823     0.13720
C2308       C  0.89562053  0.00980436  0.89284670    -0.20630
C2309       C  0.92191432  0.02868246  0.89431631    -0.07150
C2310       C  0.94757946  0.02257925  0.87581372     0.13710
C2311       C  0.97600588  0.04269053  0.87657548    -0.23980
H2312       H  0.96665545  0.99276123  0.84243541     0.15000
H2313       H  0.87597366  0.01479954  0.90713290     0.15030
C2314       C  0.86587963  0.96481626  0.87239330    -0.23930
H2315       H  0.99404446  0.03479615  0.86063215     0.05240
H2316       H  0.98641566  0.04238754  0.89906519     0.08470
H2317       H  0.96919832  0.06669501  0.87075176     0.08470
H2318       H  0.87138738  0.94096353  0.87975330     0.08450
H2319       H  0.85656234  0.96432869  0.84948162     0.08450
H2320       H  0.84734974  0.97406913  0.88712345     0.05230
C2321       C  0.89371115  0.91721683  0.66527044    -0.20580
C2322       C  0.87542932  0.89110752  0.65953582    -0.07150
C2323       C  0.86148174  0.87548837  0.68360052     0.13720
C2324       C  0.86895159  0.88435144  0.71260768    -0.20630
C2325       C  0.89064692  0.90769495  0.71814540    -0.07150
C2326       C  0.90180744  0.92550841  0.69428136     0.13710
C2327       C  0.92253511  0.95298134  0.69918200    -0.23980
H2328       H  0.90371288  0.92985080  0.64694404     0.15000
H2329       H  0.85974955  0.87123251  0.73100291     0.15030
C2330       C  0.83936942  0.84901557  0.67911267    -0.23930
H2331       H  0.92716071  0.96548470  0.67821515     0.05240
H2332       H  0.94532717  0.94553395  0.70831744     0.08470
H2333       H  0.91111820  0.96938734  0.71471040     0.08470
H2334       H  0.85183709  0.82878419  0.66968150     0.08450
H2335       H  0.82018173  0.85622759  0.66411466     0.08450
H2336       H  0.82882583  0.84145330  0.70031056     0.05230
C2337       C  0.91753205  0.50007740  0.59602848    -0.20580
C2338       C  0.91761949  0.52988032  0.60834581    -0.07150
C2339       C  0.91555829  0.53302646  0.63949619     0.13720
C2340       C  0.91513899  0.50639102  0.65725072    -0.20630
C2341       C  0.91668875  0.47660992  0.64494308    -0.07150
C2342       C  0.91716536  0.47348313  0.61374116     0.13710
C2343       C  0.91863400  0.44240764  0.59869841    -0.23980
H2344       H  0.91870250  0.49745815  0.57219991     0.15000
H2345       H  0.91445110  0.50891176  0.68110718     0.15030
C2346       C  0.91478632  0.56413865  0.65446396    -0.23930
H2347       H  0.91927617  0.44456202  0.57422256     0.05240
H2348       H  0.89772301  0.42877813  0.60445334     0.08470
H2349       H  0.94002002  0.42979513  0.60561058     0.08470
H2350       H  0.89418667  0.57753352  0.64679665     0.08450
H2351       H  0.93641985  0.57695177  0.64941866     0.08450
H2352       H  0.91311270  0.56203254  0.67889895     0.05230
C2353       C  0.92564442  0.71617437  0.54101717    -0.20580
C2354       C  0.90937190  0.69524924  0.55895007    -0.07150
C2355       C  0.88662948  0.70692433  0.57879188     0.13720
C2356       C  0.88127844  0.73896783  0.58034571    -0.20630
C2357       C  0.89783917  0.75981739  0.56261815    -0.07150
C2358       C  0.92032582  0.74812283  0.54256271     0.13710
C2359       C  0.93965588  0.76895747  0.52328103    -0.23980
H2360       H  0.94310523  0.70754088  0.52576572     0.15000
H2361       H  0.86403815  0.74783092  0.59570740     0.15030
C2362       C  0.86797463  0.68609267  0.59859441    -0.23930
H2363       H  0.95683313  0.75574972  0.50986303     0.05240
H2364       H  0.95282191  0.78543397  0.53725781     0.08470
H2365       H  0.92438722  0.78178237  0.50766911     0.08470
H2366       H  0.88376597  0.67330892  0.61377590     0.08450
H2367       H  0.85445525  0.66958163  0.58498458     0.08450
H2368       H  0.85116922  0.69930673  0.61242216     0.05230
C2369       C  0.87815319  0.76593926  0.80714601    -0.20580
C2370       C  0.89974470  0.74757575  0.82255725    -0.07150
C2371       C  0.92674380  0.76118552  0.83460237     0.13720
C2372       C  0.93158834  0.79292970  0.83077113    -0.20630
C2373       C  0.90991191  0.81125845  0.81554877    -0.07150
C2374       C  0.88284619  0.79780012  0.80371128     0.13710
C2375       C  0.85946941  0.81694165  0.78680601    -0.23980
H2376       H  0.85765363  0.75529375  0.79773128     0.15000
H2377       H  0.95257667  0.80346130  0.83931790     0.15030
C2378       C  0.95114585  0.74207414  0.85027837    -0.23930
H2379       H  0.83968901  0.80280955  0.77884715     0.05240
H2380       H  0.87086659  0.82753750  0.76730372     0.08470
H2381       H  0.85004825  0.83550042  0.80127380     0.08470
H2382       H  0.96001068  0.72373110  0.83524754     0.08450
H2383       H  0.94102195  0.73129885  0.87030498     0.08450
H2384       H  0.97122861  0.75628843  0.85737515     0.05230
C2385       C  0.86421645  0.61967017  0.93028563    -0.20580
C2386       C  0.88393326  0.60827567  0.90800324    -0.07150
C2387       C  0.90794797  0.58714756  0.91570584     0.13720
C2388       C  0.91381282  0.58105777  0.94566920    -0.20630
C2389       C  0.89623265  0.59519153  0.96812201    -0.07150
C2390       C  0.86985942  0.61321412  0.96027190     0.13710
C2391       C  0.84876363  0.62748246  0.98321427    -0.23980
H2392       H  0.84536241  0.63522047  0.92432591     0.15000
H2393       H  0.93349743  0.56656139  0.95166142     0.15030
C2394       C  0.92890855  0.57244072  0.89285920    -0.23930
H2395       H  0.82929449  0.64067488  0.97296350     0.05240
H2396       H  0.86209677  0.64371355  0.49731800     0.08470
H2397       H  0.83847163  0.60906119  0.99710946     0.08470
H2398       H  0.94176757  0.59043560  0.88057044     0.08450
H2399       H  0.91479417  0.55859205  0.87721439     0.08450
H2400       H  0.94641197  0.55672396  0.90305555     0.05230
C2401       C  0.08103721  0.90426032  0.81160600    -0.20580
C2402       C  0.09072990  0.87340458  0.81490156    -0.07150
C2403       C  0.06814941  0.84969825  0.81517087     0.13720
C2404       C  0.03655107  0.85759098  0.81304010    -0.20630
C2405       C  0.02696355  0.88835611  0.80998357    -0.07150
C2406       C  0.04932074  0.91202576  0.80916659     0.13710
C2407       C  0.03968035  0.94544619  0.80681347    -0.23980
H2408       H  0.09828369  0.92239152  0.81153544     0.15000
H2409       H  0.01915639  0.83957175  0.81321263     0.15030
C2410       C  0.07705749  0.81596308  0.81644603    -0.23930
H2411       H  0.06006690  0.96104511  0.80753678     0.05240
H2412       H  0.02403431  0.95158479  0.82549560     0.08470
H2413       H  0.02727687  0.94948085  0.78561802     0.08470
H2414       H  0.08821183  0.81045578  0.83794892     0.08450
H2415       H  0.09326636  0.81042741  0.79805660     0.08450
H2416       H  0.05647498  0.80077123  0.81418150     0.05230
C2417       C  0.14750121  0.99728828  0.65824484    -0.20580
C2418       C  0.15434324  0.02662243  0.64674585    -0.07150
C2419       C  0.16222745  0.02916323  0.61637828     0.13720
C2420       C  0.16175792  0.00265968  0.59840557    -0.20630
C2421       C  0.15378342  0.97362318  0.60976922    -0.07150
C2422       C  0.14698047  0.97086600  0.64027876     0.13710
C2423       C  0.13756822  0.94057147  0.65394457    -0.23980
H2424       H  0.14156247  0.99504660  0.68144426     0.15000
H2425       H  0.16705823  0.00474886  0.57504594     0.15030
C2426       C  0.17040046  0.05960578  0.60234330    -0.23930
H2427       H  0.13192328  0.94305723  0.67780612     0.05240
H2428       H  0.15693516  0.92359409  0.65207808     0.08470
H2429       H  0.11655420  0.93156080  0.64262675     0.08470
H2430       H  0.19102399  0.06955843  0.61354752     0.08450
H2431       H  0.15035478  0.07583288  0.60393538     0.08450
H2432       H  0.17620809  0.05699486  0.57852795     0.05230
C2433       C  0.02118074  0.90430109  0.54328268    -0.20580
C2434       C  0.04156956  0.89318514  0.56525009    -0.07150
C2435       C  0.02897663  0.87708829  0.58974350     0.13720
C2436       C  0.99691450  0.87150890  0.59078660    -0.20630
C2437       C  0.97669272  0.88164415  0.56835125    -0.07150
C2438       C  0.98895749  0.89893094  0.54454440     0.13710
C2439       C  0.96860697  0.91112986  0.51997213    -0.23980
H2440       H  0.03056089  0.91693401  0.52466324     0.15000
H2441       H  0.98758083  0.85870601  0.60932938     0.15030
C2442       C  0.04885705  0.86496705  0.61473091    -0.23930
H2443       H  0.98230158  0.92360358  0.50298403     0.05240
H2444       H  0.95116484  0.92760370  0.52907400     0.08470
H2445       H  0.95660702  0.89171974  0.50881693     0.08470
H2446       H  0.06107026  0.88433874  0.62572873     0.08450
H2447       H  0.06594886  0.84796975  0.60608245     0.08450
H2448       H  0.03484312  0.85306641  0.63186241     0.05230
C2449       C  0.15673454  0.92140589  0.94598977    -0.20580
C2450       C  0.17422264  0.90710419  0.96845359    -0.07150
C2451       C  0.20023474  0.88851653  0.96056463     0.13720
C2452       C  0.20597995  0.88233896  0.93056919    -0.20630
C2453       C  0.18668635  0.89437458  0.90829481    -0.07150
C2454       C  0.16260734  0.91533764  0.91600673     0.13710
C2455       C  0.14147975  0.92960158  0.89303755    -0.23980
H2456       H  0.13717611  0.93606609  0.95195874     0.15000
H2457       H  0.22467242  0.86662574  0.92452103     0.15030
C2458       C  0.22088940  0.87338123  0.98340459    -0.23930
H2459       H  0.12354779  0.94488173  0.90315983     0.05240
H2460       H  0.12920437  0.91122895  0.88058392     0.08470
H2461       H  0.15535727  0.94381072  0.87753556     0.08470
H2462       H  0.20707938  0.85737297  0.49726159     0.08450
H2463       H  0.23173461  0.89131220  0.49753591     0.08450
H2464       H  0.23998426  0.85973092  0.97307266     0.05230
C2465       C  0.19052967  0.79836179  0.55279496    -0.20580
C2466       C  0.16132186  0.80911884  0.56238671    -0.07150
C2467       C  0.13983516  0.78813191  0.57459217     0.13720
C2468       C  0.14813390  0.75695455  0.57709804    -0.20630
C2469       C  0.17695442  0.74604440  0.56694879    -0.07150
C2470       C  0.19841930  0.76681843  0.55447669     0.13710
C2471       C  0.22972508  0.75588322  0.54359999    -0.23980
H2472       H  0.20687311  0.81455545  0.54336551     0.15000
H2473       H  0.13177244  0.74080916  0.58661195     0.15030
C2474       C  0.10850829  0.79859616  0.58590677    -0.23930
H2475       H  0.24397493  0.77531500  0.53526261     0.05240
H2476       H  0.22666553  0.73915750  0.52523736     0.08470
H2477       H  0.24265368  0.74453879  0.56193485     0.08470
H2478       H  0.09424883  0.80807986  0.56752071     0.08450
H2479       H  0.11180461  0.81654561  0.60312563     0.08450
H2480       H  0.09529577  0.77930012  0.59592859     0.05230
C2481       C  0.08482196  0.59936389  0.55963625    -0.20580
C2482       C  0.09391622  0.63045278  0.56149116    -0.07150
C2483       C  0.07061807  0.65391585  0.56133473     0.13720
C2484       C  0.03922081  0.64555405  0.56028199    -0.20630
C2485       C  0.03025938  0.61460668  0.55881631    -0.07150
C2486       C  0.05322660  0.59116255  0.55825384     0.13710
C2487       C  0.04447288  0.55756503  0.55738994    -0.23980
H2488       H  0.10244926  0.58135371  0.55988270     0.15000
H2489       H  0.02139292  0.66341157  0.56025386     0.15030
C2490       C  0.07824261  0.68790315  0.56177426    -0.23930
H2491       H  0.06529557  0.54225022  0.55833268     0.05240
H2492       H  0.03180798  0.55243433  0.53658808     0.08470
H2493       H  0.02938855  0.55207032  0.57659063     0.08470
H2494       H  0.09403395  0.69350832  0.54312999     0.08450
H2495       H  0.08928260  0.69416902  0.58311808     0.08450
H2496       H  0.05708098  0.70258695  0.55941483     0.05230
C2497       C  0.15029463  0.53509080  0.88732349    -0.20580
C2498       C  0.15749911  0.52940999  0.85753476    -0.07150
C2499       C  0.16530556  0.49898417  0.84869016     0.13720
C2500       C  0.16428364  0.47497590  0.86956833    -0.20630
C2501       C  0.15517636  0.48030782  0.89902686    -0.07150
C2502       C  0.14868142  0.51107526  0.90810898     0.13710
C2503       C  0.13934125  0.51908732  0.93935896    -0.23980
H2504       H  0.14445693  0.55840795  0.89417574     0.15000
H2505       H  0.16971091  0.45165104  0.86248649     0.15030
C2506       C  0.17491813  0.49153125  0.81741377    -0.23930
H2507       H  0.13607278  0.54435270  0.94242131     0.05240
H2508       H  0.15774308  0.51139255  0.95501143     0.08470
H2509       H  0.11690103  0.50794881  0.94489207     0.08470
H2510       H  0.19486890  0.50618986  0.81090361     0.08450
H2511       H  0.15513881  0.49549616  0.80206479     0.08450
H2512       H  0.18223175  0.46700668  0.81501006     0.05230
C2513       C  0.03409168  0.62170032  0.83551312    -0.20580
C2514       C  0.04532461  0.61209567  0.80780713    -0.07150
C2515       C  0.02402396  0.60919562  0.78398594     0.13720
C2516       C  0.99245008  0.61656831  0.78855048    -0.20630
C2517       C  0.98164648  0.62707466  0.81605774    -0.07150
C2518       C  0.00267972  0.62885215  0.84012760     0.13710
C2519       C  0.99319488  0.63717229  0.87132202    -0.23980
H2520       H  0.04998425  0.62364042  0.85406047     0.15000
H2521       H  0.97621114  0.61501452  0.77024928     0.15030
C2522       C  0.03415680  0.59898400  0.75359529    -0.23930
H2523       H  0.00439735  0.65917106  0.87785870     0.05240
H2524       H  0.00112896  0.61868965  0.88665638     0.08470
H2525       H  0.96782278  0.63949794  0.87456976     0.08470
H2526       H  0.04473935  0.57555699  0.75477445     0.08450
H2527       H  0.05121090  0.61557823  0.74446570     0.08450
H2528       H  0.01426622  0.59791730  0.73792652     0.05230
C2529       C  0.19738307  0.63086334  0.71352029    -0.20580
C2530       C  0.18464423  0.60189089  0.71970229    -0.07150
C2531       C  0.18081652  0.58040813  0.69655817     0.13720
C2532       C  0.18734714  0.58944407  0.66738294    -0.20630
C2533       C  0.19701301  0.61964328  0.66073255    -0.07150
C2534       C  0.20316404  0.64031166  0.68439194     0.13710
C2535       C  0.21390492  0.67299690  0.67944432    -0.23980
H2536       H  0.20040427  0.64724141  0.73144384     0.15000
H2537       H  0.18330991  0.57324337  0.64953119     0.15030
C2538       C  0.16979441  0.54806420  0.70251621    -0.23930
H2539       H  0.21768278  0.68546888  0.70060880     0.05240
H2540       H  0.19603354  0.68614539  0.66681874     0.08470
H2541       H  0.23632488  0.67284552  0.66727169     0.08470
H2542       H  0.14570589  0.54850607  0.71127780     0.08450
H2543       H  0.18548048  0.53674918  0.71883331     0.08450
H2544       H  0.16978516  0.53380568  0.68208688     0.05230
C2545       C  0.18798910  0.70458212  0.82401275    -0.20580
C2546       C  0.15970604  0.69549851  0.81108905    -0.07150
C2547       C  0.13847139  0.71856817  0.80123270     0.13720
C2548       C  0.14646130  0.74970240  0.80401280    -0.20630
C2549       C  0.17460721  0.75871008  0.81690772    -0.07150
C2550       C  0.19566857  0.73591718  0.82714214     0.13710
C2551       C  0.22660510  0.74440337  0.84044320    -0.23980
H2552       H  0.20434106  0.68708967  0.83147859     0.15000
H2553       H  0.13025732  0.76728627  0.79647722     0.15030
C2554       C  0.10699847  0.71102866  0.78833604    -0.23930
H2555       H  0.24082665  0.72363147  0.84581092     0.05240
H2556       H  0.22298107  0.75751489  0.86125856     0.08470
H2557       H  0.23995240  0.75868564  0.82456364     0.08470
H2558       H  0.09351985  0.69690256  0.80424756     0.08450
H2559       H  0.10984127  0.69839964  0.76713777     0.08450
H2560       H  0.09306916  0.73215874  0.78356175     0.05230
C2561       C  0.63785986  0.00662827  0.65682940    -0.20580
C2562       C  0.65411443  0.97961750  0.64882752    -0.07150
C2563       C  0.67143309  0.97942201  0.62211874     0.13720
C2564       C  0.67088881  0.00570912  0.60381801    -0.20630
C2565       C  0.65383609  0.03226412  0.61155090    -0.07150
C2566       C  0.63730432  0.03277598  0.63861048     0.13710
C2567       C  0.61752182  0.06006914  0.64782679    -0.23980
H2568       H  0.62451808  0.00705531  0.67717014     0.15000
H2569       H  0.68353787  0.00539578  0.58307540     0.15030
C2570       C  0.69044518  0.95180775  0.61253124    -0.23930
H2571       H  0.60506951  0.05575470  0.66893079     0.05240
H2572       H  0.59972561  0.06500163  0.63060836     0.08470
H2573       H  0.63237327  0.08062236  0.65117076     0.08470
H2574       H  0.67499659  0.93185033  0.60838684     0.08450
H2575       H  0.70774385  0.94585573  0.62991333     0.08450
H2576       H  0.70340189  0.95636256  0.59175293     0.05230
C2577       C  0.78639711  0.87462913  0.97079541    -0.20580
C2578       C  0.75642304  0.87095691  0.98260195    -0.07150
C2579       C  0.75292148  0.86904659  0.51370287     0.13720
C2580       C  0.77951163  0.86932552  0.53179947    -0.20630
C2581       C  0.80963483  0.87139984  0.51989199    -0.07150
C2582       C  0.81299756  0.87494110  0.98888284     0.13710
C2583       C  0.84439980  0.87792607  0.97433471    -0.23980
H2584       H  0.78915117  0.87645444  0.94701979     0.15000
H2585       H  0.77672652  0.86697129  0.55552598     0.15030
C2586       C  0.72153464  0.86531939  0.52810924    -0.23930
H2587       H  0.84241601  0.88036681  0.94994505     0.05240
H2588       H  0.85873614  0.85701857  0.97882506     0.08470
H2589       H  0.85637518  0.89875735  0.98282363     0.08470
H2590       H  0.71033217  0.84388807  0.52001850     0.08450
H2591       H  0.70654534  0.88560966  0.52300924     0.08450
H2592       H  0.72339854  0.86360779  0.55256456     0.05230
C2593       C  0.70870109  0.87809970  0.82078171    -0.20580
C2594       C  0.69369732  0.89486046  0.84331720    -0.07150
C2595       C  0.67549733  0.92109878  0.83559887     0.13720
C2596       C  0.67001065  0.92754096  0.80560471    -0.20630
C2597       C  0.68222715  0.90862147  0.78320189    -0.07150
C2598       C  0.70311618  0.88448644  0.79082883     0.13710
C2599       C  0.71760167  0.86367043  0.76779581    -0.23980
H2600       H  0.72322759  0.85845692  0.82659061     0.15000
H2601       H  0.65440757  0.94630516  0.79963333     0.15030
C2602       C  0.66003519  0.94132054  0.85851548    -0.23930
H2603       H  0.73292017  0.84577686  0.77787151     0.05240
H2604       H  0.73203285  0.87753049  0.75246406     0.08470
H2605       H  0.69914316  0.85157612  0.75518769     0.08470
H2606       H  0.67790042  0.95102389  0.87357103     0.08450
H2607       H  0.64290540  0.92774983  0.87136654     0.08450
H2608       H  0.64729048  0.96101106  0.84829503     0.05230
C2609       C  0.78438172  0.64562179  0.78427834    -0.20580
C2610       C  0.81378087  0.63708010  0.77323753    -0.07150
C2611       C  0.81610264  0.62673232  0.74352159     0.13720
C2612       C  0.78937041  0.62669176  0.72556869    -0.20630
C2613       C  0.76031033  0.63646939  0.73635122    -0.07150
C2614       C  0.75772474  0.64560085  0.76634671     0.13710
C2615       C  0.72740320  0.65687099  0.77943532    -0.23980
H2616       H  0.78229563  0.65338914  0.80699906     0.15000
H2617       H  0.79130503  0.61951222  0.70265615     0.15030
C2618       C  0.84648569  0.61602602  0.73021004    -0.23930
H2619       H  0.73008055  0.66409896  0.80287637     0.05240
H2620       H  0.70996288  0.63811287  0.77886108     0.08470
H2621       H  0.71863899  0.67714367  0.76682131     0.08470
H2622       H  0.85618072  0.59653684  0.74332759     0.08450
H2623       H  0.86327294  0.63536420  0.72971003     0.08450
H2624       H  0.84352383  0.60781204  0.70710183     0.05230
C2625       C  0.66121540  0.75762422  0.71194378    -0.20580
C2626       C  0.67872128  0.74737998  0.68760077    -0.07150
C2627       C  0.68927092  0.76937912  0.66676048     0.13720
C2628       C  0.68136992  0.80070348  0.67061292    -0.20630
C2629       C  0.66300057  0.81073365  0.69451152    -0.07150
C2630       C  0.65309475  0.78873527  0.71570449     0.13710
C2631       C  0.63394657  0.79737134  0.74249785    -0.23980
H2632       H  0.65315767  0.74099228  0.72806654     0.15000
H2633       H  0.68923459  0.81743141  0.65450020     0.15030
C2634       C  0.70872178  0.76032041  0.64037802    -0.23930
H2635       H  0.62927938  0.77714920  0.75688589     0.05240
H2636       H  0.61102763  0.80684029  0.73547906     0.08470
H2637       H  0.64658843  0.81459024  0.75607405     0.08470
H2638       H  0.69530261  0.74476535  0.62569091     0.08450
H2639       H  0.73038513  0.74857355  0.64787369     0.08450
H2640       H  0.71556654  0.78070733  0.62705374     0.05230
C2641       C  0.62328799  0.51358817  0.88789929    -0.20580
C2642       C  0.65169148  0.52659850  0.89659889    -0.07150
C2643       C  0.67983130  0.51433865  0.88517272     0.13720
C2644       C  0.67871215  0.48912356  0.86547913    -0.20630
C2645       C  0.65012193  0.47685151  0.85637404    -0.07150
C2646       C  0.62211028  0.48916108  0.86775586     0.13710
C2647       C  0.59086038  0.47608161  0.85928276    -0.23980
H2648       H  0.60167720  0.52300588  0.89652731     0.15000
H2649       H  0.70009552  0.47933551  0.85674423     0.15030
C2650       C  0.71089579  0.52722036  0.89409149    -0.23930
H2651       H  0.57147390  0.48769939  0.87124424     0.05240
H2652       H  0.59018063  0.45109271  0.86471494     0.08470
H2653       H  0.58672273  0.47923598  0.83524187     0.08470
H2654       H  0.71350389  0.52607213  0.91850140     0.08450
H2655       H  0.71270546  0.55156956  0.88670993     0.08450
H2656       H  0.73045431  0.51405677  0.88397131     0.05230
C2657       C  0.64494656  0.61126667  0.55584428    -0.20580
C2658       C  0.66803168  0.60035218  0.53637584    -0.07150
C2659       C  0.69879702  0.59607088  0.54714000     0.13720
C2660       C  0.70570196  0.60398886  0.57672300    -0.20630
C2661       C  0.68259944  0.61611611  0.59538509    -0.07150
C2662       C  0.65188841  0.61947387  0.58492962     0.13710
C2663       C  0.62641990  0.63264423  0.60427543    -0.23980
H2664       H  0.62135755  0.61476486  0.54797520     0.15000
H2665       H  0.72922232  0.60143926  0.58507339     0.15030
C2666       C  0.72431208  0.58326350  0.52780108    -0.23930
H2667       H  0.60372946  0.63392324  0.59254175     0.05240
H2668       H  0.63257702  0.65637935  0.61136941     0.08470
H2669       H  0.62341100  0.61782388  0.62406038     0.08470
H2670       H  0.72909699  0.59940770  0.50934701     0.08450
H2671       H  0.71728821  0.56048232  0.51881526     0.08450
H2672       H  0.74634109  0.57997205  0.54031729     0.05230
C2673       C  0.67487610  0.74015278  0.90824310    -0.20580
C2674       C  0.67674760  0.75812358  0.93412600    -0.07150
C2675       C  0.67366817  0.74342107  0.96195088     0.13720
C2676       C  0.66790578  0.71164502  0.96296652    -0.20630
C2677       C  0.66502212  0.69390818  0.93713187    -0.07150
C2678       C  0.66893502  0.70829112  0.90934619     0.13710
C2679       C  0.66561971  0.69063854  0.88080312    -0.23980
H2680       H  0.67719787  0.75124669  0.88687833     0.15000
H2681       H  0.66522767  0.70055410  0.98430617     0.15030
C2682       C  0.67640354  0.76070284  0.49081595    -0.23930
H2683       H  0.66830721  0.70584277  0.86120456     0.05240
H2684       H  0.64220563  0.68001527  0.87963751     0.08470
H2685       H  0.68380321  0.67236424  0.87946359     0.08470
H2686       H  0.65713412  0.77776483  0.49290035     0.08450
H2687       H  0.69918364  0.77258970  0.49192418     0.08450
H2688       H  0.67495649  0.74501532  0.51018999     0.05230
C2689       C  0.39198295  0.00907344  0.85977212    -0.20580
C2690       C  0.41952967  0.02596310  0.85654943    -0.07150
C2691       C  0.44616851  0.01731347  0.87277769     0.13720
C2692       C  0.44478532  0.99255198  0.89237176    -0.20630
C2693       C  0.41742911  0.97566513  0.89602508    -0.07150
C2694       C  0.39062710  0.98380066  0.87945632     0.13710
C2695       C  0.36055604  0.96666140  0.88319754    -0.23980
H2696       H  0.37158215  0.01581730  0.84716660     0.15000
H2697       H  0.46550966  0.98598332  0.90462817     0.15030
C2698       C  0.47649153  0.03373051  0.86871713    -0.23930
H2699       H  0.34166127  0.97684414  0.86945900     0.05240
H2700       H  0.35314049  0.96762216  0.90670844     0.08470
H2701       H  0.36369749  0.94221359  0.87641935     0.08470
H2702       H  0.47381560  0.05827318  0.87533447     0.08450
H2703       H  0.48315412  0.03227637  0.84507404     0.08770
H2704       H  0.49551855  0.02332432  0.88214089     0.05230
C2705       C  0.53457918  0.86152555  0.92510942    -0.20580
C2706       C  0.52554898  0.88994558  0.93734613    -0.07150
C2707       C  0.54871566  0.91106320  0.94626084     0.13720
C2708       C  0.58026193  0.90288041  0.94318632    -0.20630
C2709       C  0.58937396  0.87413120  0.93151003    -0.07150
C2710       C  0.56604393  0.85316158  0.92225864     0.13710
C2711       C  0.57371819  0.82153549  0.91014071    -0.23980
H2712       H  0.51679314  0.84529244  0.91848174     0.15000
H2713       H  0.59794735  0.91912827  0.94997660     0.15030
C2714       C  0.54048821  0.94252278  0.95835890    -0.23930
H2715       H  0.55244385  0.80797136  0.90541432     0.05240
H2716       H  0.58777307  0.80831885  0.92649066     0.08470
H2717       H  0.58672004  0.82368285  0.88905440     0.08470
H2718       H  0.52819376  0.94021464  0.97979753     0.08450
H2719       H  0.52542856  0.95509515  0.94234997     0.08450
H2720       H  0.56152594  0.95668960  0.96232826     0.05230
C2721       C  0.31531965  0.87204003  0.76179413    -0.20580
C2722       C  0.31014613  0.86939979  0.73120723    -0.07150
C2723       C  0.27905292  0.86888350  0.72065615     0.13720
C2724       C  0.25435633  0.86936019  0.74101229    -0.20630
C2725       C  0.25965369  0.86983075  0.77166854    -0.07150
C2726       C  0.29065707  0.87205736  0.78214702     0.13710
C2727       C  0.29825380  0.87431816  0.81465335    -0.23980
H2728       H  0.33897858  0.87292096  0.77004070     0.15000
H2729       H  0.23068234  0.86805236  0.73285456     0.15030
C2730       C  0.27139024  0.86744451  0.68813179    -0.23930
H2731       H  0.32350462  0.87790839  0.81850284     0.05240
H2732       H  0.29182775  0.85262641  0.82609455     0.08470
H2733       H  0.28554512  0.89417619  0.82460255     0.08470
H2734       H  0.27983047  0.84529279  0.67861783     0.08450
H2735       H  0.28227948  0.88714938  0.67645280     0.08450
H2736       H  0.24591306  0.86876234  0.68408552     0.05230
C2737       C  0.42242683  0.91510615  0.56036110    -0.20580
C2738       C  0.39956409  0.91045519  0.53858536    -0.07150
C2739       C  0.36935635  0.90127391  0.54746130     0.13720
C2740       C  0.36392875  0.89407021  0.57734702    -0.20630
C2741       C  0.38766448  0.89636439  0.59849196    -0.07150
C2742       C  0.41700393  0.90795135  0.59008555     0.13710
C2743       C  0.44358211  0.91035533  0.61181601    -0.23980
H2744       H  0.44544246  0.92259328  0.55386402     0.15000
H2745       H  0.34145290  0.88531257  0.58405317     0.15030
C2746       C  0.34311820  0.89757361  0.52565239    -0.23930
H2747       H  0.46519840  0.91876449  0.60115299     0.05240
H2748       H  0.44874694  0.88731241  0.62147399     0.08470
H2749       H  0.43739589  0.92680676  0.62972892     0.08470
H2750       H  0.34888523  0.87909391  0.50950508     0.08450
H2751       H  0.33896488  0.91972465  0.51388385     0.08450
H2752       H  0.32106584  0.89107929  0.53675489     0.05230
C2753       C  0.52374170  0.90084128  0.71363225    -0.20580
C2754       C  0.54428254  0.88917411  0.69207728    -0.07150
C2755       C  0.53232037  0.87022974  0.66923965     0.13720
C2756       C  0.50050067  0.86342206  0.66882862    -0.20630
C2757       C  0.47995922  0.87491968  0.69041428    -0.07150
C2758       C  0.49177568  0.89413333  0.71307037     0.13710
C2759       C  0.47121083  0.90725406  0.73703381    -0.23980
H2760       H  0.53277370  0.91529134  0.73119090     0.15000
H2761       H  0.49158466  0.84890986  0.65125975     0.15030
C2762       C  0.55272688  0.85634711  0.64547950    -0.23930
H2763       H  0.48467192  0.92090194  0.75338006     0.05240
H2764       H  0.45963019  0.88822427  0.74912362     0.08470
H2765       H  0.45343514  0.92288232  0.72719176     0.08470
H2766       H  0.57106636  0.84161503  0.65567993     0.08450
H2767       H  0.56351961  0.87496472  0.63220849     0.08450
H2768       H  0.53932089  0.84160966  0.62998703     0.05230
C2769       C  0.28337537  0.63091128  0.96931340    -0.20580
C2770       C  0.31350001  0.63211020  0.98132616    -0.07150
C2771       C  0.31710237  0.63099260  0.51245614     0.13720
C2772       C  0.29050824  0.63057044  0.53049707    -0.20630
C2773       C  0.26031471  0.63139680  0.51850063    -0.07150
C2774       C  0.25677960  0.63059791  0.98733251     0.13710
C2775       C  0.22528093  0.63066117  0.97260124    -0.23980
H2776       H  0.28051954  0.63127435  0.94548087     0.15000
H2777       H  0.29340460  0.63074263  0.55432541     0.15030
C2778       C  0.34864282  0.63164938  0.52708118    -0.23930
H2779       H  0.22717568  0.62984005  0.94810733     0.05240
H2780       H  0.21231206  0.65207249  0.97843268     0.08470
H2781       H  0.21195465  0.61009339  0.97968470     0.08470
H2782       H  0.36094480  0.65319206  0.52103452     0.08450
H2783       H  0.36257338  0.61124509  0.52006472     0.08450
H2784       H  0.34685317  0.63098129  0.55158498     0.05230
C2785       C  0.37343268  0.76747958  0.92812675    -0.20580
C2786       C  0.39535036  0.74617491  0.93912668    -0.07150
C2787       C  0.42263417  0.75717087  0.95298817     0.13720
C2788       C  0.42748777  0.78898960  0.95496265    -0.20630
C2789       C  0.40581510  0.81047805  0.94383122    -0.07150
C2790       C  0.37808349  0.79953039  0.93060712     0.13710
C2791       C  0.35312812  0.82119454  0.91943922    -0.23980
H2792       H  0.35247245  0.75897192  0.91766039     0.15000
H2793       H  0.44876437  0.79709173  0.96513752     0.15030
C2794       C  0.44744021  0.73568192  0.96491892    -0.23930
H2795       H  0.33265022  0.80850099  0.91084330     0.05240
H2796       H  0.36235560  0.83546556  0.90110732     0.08470
H2797       H  0.34498241  0.83635514  0.93772705     0.08470
H2798       H  0.45565789  0.71996124  0.94716680     0.08450
H2799       H  0.43799489  0.72199019  0.98355059     0.08450
H2800       H  0.46795026  0.74841688  0.97338641     0.05230
C2801       C  0.48977852  0.60435619  0.94368642    -0.20580
C2802       C  0.48047148  0.63085982  0.92803411    -0.07150
C2803       C  0.50351779  0.64893073  0.91383567     0.13720
C2804       C  0.53501060  0.64089328  0.91717361    -0.20630
C2805       C  0.54427799  0.61529854  0.93405456    -0.07150
C2806       C  0.52126973  0.59618662  0.94672393     0.13710
C2807       C  0.52946756  0.56681069  0.96295595    -0.23980
H2808       H  0.47228384  0.58992158  0.95382986     0.15000
H2809       H  0.55263137  0.65525618  0.90710212     0.15030
C2810       C  0.49560480  0.67691379  0.89537959    -0.23930
H2811       H  0.50839375  0.55368051  0.96929575     0.05240
H2812       H  0.54226959  0.57218644  0.98361235     0.08470
H2813       H  0.54394200  0.55167517  0.94856243     0.08470
H2814       H  0.48333432  0.69440086  0.90905205     0.08450
H2815       H  0.48079914  0.67007950  0.87637789     0.08450
H2816       H  0.51672647  0.68803178  0.88622811     0.05230
C2817       C  0.44845005  0.49704985  0.60697853    -0.20580
C2818       C  0.42265937  0.47736088  0.60621256    -0.07150
C2819       C  0.39715545  0.48333927  0.62526787     0.13720
C2820       C  0.39829104  0.50883879  0.64463213    -0.20630
C2821       C  0.42467973  0.52766394  0.64595998    -0.07150
C2822       C  0.44995958  0.52181837  0.62679085     0.13710
C2823       C  0.47842618  0.54204082  0.62676093    -0.23980
H2824       H  0.46802918  0.49256639  0.59244254     0.15000
H2825       H  0.37891653  0.51362987  0.65931518     0.15030
C2826       C  0.36862227  0.46336651  0.62497837    -0.23930
H2827       H  0.49537310  0.53491424  0.60947164     0.05240
H2828       H  0.49044173  0.54058154  0.64845197     0.08470
H2829       H  0.47151181  0.56637439  0.62241130     0.08470
H2830       H  0.37479436  0.43956776  0.63204525     0.08450
H2831       H  0.35855917  0.46280720  0.60235945     0.08450
H2832       H  0.35045346  0.47223268  0.64031691     0.05230
C2833       C  0.55071983  0.59893501  0.70719178    -0.20580
C2834       C  0.52927099  0.61877182  0.69325532    -0.07150
C2835       C  0.54037036  0.64454876  0.67735175     0.13720
C2836       C  0.57247333  0.64970376  0.67586362    -0.20630
C2837       C  0.59409898  0.62985145  0.68964158    -0.07150
C2838       C  0.58297120  0.60392278  0.70543192     0.13710
C2839       C  0.60461262  0.58137757  0.72053525    -0.23980
H2840       H  0.54217649  0.57916246  0.71933279     0.15000
H2841       H  0.58069227  0.66956783  0.66366747     0.15030
C2842       C  0.51868364  0.66734690  0.66253186    -0.23930
H2843       H  0.59170160  0.56269384  0.73189312     0.05240
H2844       H  0.61867801  0.59354204  0.73746472     0.08470
H2845       H  0.62016972  0.57033922  0.70396121     0.08470
H2846       H  0.50206430  0.67700562  0.67897493     0.08450
H2847       H  0.50573978  0.65582078  0.64443306     0.08450
H2848       H  0.53146873  0.68696426  0.65258406     0.05230
C2849       C  0.40978638  0.57942008  0.80719799    -0.20580
C2850       C  0.39414950  0.59459822  0.78410350    -0.07150
C2851       C  0.36968449  0.61550889  0.79095442     0.13720
C2852       C  0.36357623  0.62275574  0.82066804    -0.20630
C2853       C  0.38114412  0.60963180  0.84366624    -0.07150
C2854       C  0.40361977  0.58657534  0.83690843     0.13710
C2855       C  0.42296379  0.57108691  0.86056097    -0.23980
H2856       H  0.42833593  0.56324871  0.80190509     0.15000
H2857       H  0.34615955  0.64014138  0.82590262     0.15030
C2858       C  0.35148570  0.63212465  0.76720839    -0.23930
H2859       H  0.43971237  0.55411129  0.85109631     0.05240
H2860       H  0.40758206  0.55845453  0.87603457     0.08470
H2861       H  0.43658223  0.58860009  0.87288086     0.08470
H2862       H  0.33934281  0.61507869  0.75304174     0.08450
H2863       H  0.36737738  0.64624290  0.75349222     0.08450
H2864       H  0.33357801  0.64788734  0.77667915     0.05230
C2865       C  0.39612805  0.70872951  0.71334757    -0.20580
C2866       C  0.40778103  0.69267086  0.68872365    -0.07150
C2867       C  0.41217198  0.70864006  0.66181756     0.13720
C2868       C  0.40538324  0.74039785  0.66050689    -0.20630
C2869       C  0.39472096  0.75670854  0.68545948    -0.07150
C2870       C  0.38945331  0.74044199  0.71212748     0.13710
C2871       C  0.37648915  0.75602866  0.73934769    -0.23980
H2872       H  0.39255366  0.69638351  0.73391095     0.15000
H2873       H  0.40948254  0.75278988  0.64006443     0.15030
C2874       C  0.42542752  0.69281365  0.63488812    -0.23930
H2875       H  0.37195130  0.73922960  0.75736788     0.05240
H2876       H  0.35411475  0.76771529  0.73391614     0.08470
H2877       H  0.39333077  0.77310104  0.74799576     0.08470
H2878       H  0.40944552  0.67440025  0.62735569     0.08450
H2879       H  0.44852970  0.68259180  0.64024120     0.08450
H2880       H  0.42856078  0.70915717  0.61621951     0.05230
loop_ 
_geom_bond_atom_site_label_1 
_geom_bond_atom_site_label_2 
_geom_bond_distance 
_geom_bond_site_symmetry_2 
_ccdc_geom_bond_type 
In1           O3   2.250       .  S
In1           O4   2.234       .  S
In1          O12   2.230       .  S
In1           O6   2.269       .  S
In1           O8   2.257       .  S
In1           O9   2.247       .  S
In1          O10   2.227       .  S
In1          O13   2.233       .  S
C2            O8   1.264       .  A
C2           O10   1.259       .  A
C2         C1426   1.479       .  S
O3           C11   1.261       .  A
O4           C11   1.261       .  A
C5           O12   1.256       .  A
C5            O6   1.261       .  A
C5         C1381   1.474       .  S
C7            O9   1.262       .  A
C7           O13   1.260       .  A
C7         C1394   1.481       .  S
C11        C1410   1.481       .  S
In14         O16   2.237       .  S
In14         O17   2.237       .  S
In14         O25   2.237       .  S
In14         O19   2.251       .  S
In14         O21   2.247       .  S
In14         O22   2.255       .  S
In14         O23   2.226       .  S
In14         O26   2.225       .  S
C15          O21   1.266       .  A
C15          O23   1.259       .  A
C15        C1362   1.486       .  S
O16          C24   1.261       .  A
O17          C24   1.263       .  A
C18          O25   1.261       .  A
C18          O19   1.261       .  A
C18        C1330   1.487       .  S
C20          O22   1.263       .  A
C20          O26   1.259       .  A
C20        C1346   1.480       .  S
C24        C1413   1.481       .  S
In27         O29   2.237       .  S
In27         O30   2.249       .  S
In27         O38   2.243       .  S
In27         O32   2.248       .  S
In27         O34   2.257       .  S
In27         O35   2.243       .  S
In27         O36   2.223       .  S
In27         O39   2.237       .  S
C28          O34   1.264       .  A
C28          O36   1.260       .  A
C28        C1317   1.486       .  S
O29          C37   1.260       .  A
O30          C37   1.262       .  A
C31          O38   1.259       .  A
C31          O32   1.262       .  A
C31        C1282   1.489       .  S
C33          O35   1.262       .  A
C33          O39   1.260       .  A
C33        C1301   1.474       .  S
C37        C1429   1.483       .  S
In40         O42   2.250       .  S
In40         O43   2.239       .  S
In40         O51   2.220       .  S
In40         O45   2.271       .  S
In40         O47   2.262       .  S
In40         O49   2.214       .  S
In40         O52   2.263       .  S
In40       O1488   2.223       .  S
C41          O47   1.264       .  A
C41          O49   1.260       .  A
C41        C1349   1.486       .  S
O42          C50   1.262       .  A
O43          C50   1.259       .  A
C44          O51   1.257       .  A
C44          O45   1.260       .  A
C44        C1253   1.476       .  S
C46          O48   1.257       .  A
C46        O1492   1.261   1_554  A
C46        C1298   1.486       .  S
O48       In1480   2.223   1_554  S
C50        C1266   1.481       .  S
O52        C1486   1.261       .  A
In53         O55   2.250       .  S
In53         O56   2.226       .  S
In53         O64   2.217       .  S
In53         O58   2.274       .  S
In53         O60   2.265       .  S
In53         O62   2.218       .  S
In53         O65   2.275       .  S
In53       O1501   2.210       .  S
C54          O60   1.264       .  A
C54          O62   1.258       .  A
C54        C1237   1.482       .  S
O55          C63   1.263       .  A
O56          C63   1.258       .  A
C57          O64   1.256       .  A
C57          O58   1.262       .  A
C57        C1202   1.479       .  S
C59          O61   1.258   1_554  A
C59        O1505   1.263   1_554  A
C59        C1218   1.487       .  S
O61       In1493   2.210       .  S
C63        C1365   1.480       .  S
O65        C1499   1.263       .  A
In66         O68   2.226       .  S
In66         O69   2.252       .  S
In66         O77   2.255       .  S
In66         O71   2.242       .  S
In66         O73   2.260       .  S
In66         O74   2.237       .  S
In66         O75   2.222       .  S
In66         O78   2.250       .  S
C67          O73   1.263       .  A
C67          O75   1.259       .  A
C67        C1397   1.488       .  S
O68          C76   1.261       .  A
O69          C76   1.261       .  A
C70          O77   1.260       .  A
C70          O71   1.257       .  A
C70        C1173   1.484       .  S
C72          O74   1.260       .  A
C72          O78   1.261       .  A
C72        C1221   1.469       .  S
C76        C1186   1.487       .  S
In79         O81   2.244       .  S
In79         O82   2.232       .  S
In79         O90   2.244       .  S
In79         O84   2.253       .  S
In79         O86   2.261       .  S
In79         O87   2.249       .  S
In79         O88   2.226       .  S
In79         O91   2.234       .  S
C80          O86   1.265       .  A
C80          O88   1.257       .  A
C80        C1269   1.487       .  S
O81          C89   1.261       .  A
O82          C89   1.262       .  A
C83          O90   1.260       .  A
C83          O84   1.260       .  A
C83        C1138   1.488       .  S
C85          O87   1.262       .  A
C85          O91   1.260       .  A
C85        C1234   1.486       .  S
C89        C1154   1.485       .  S
In92         O94   2.244       .  S
In92         O95   2.233       .  S
In92        O103   2.232       .  S
In92         O97   2.257       .  S
In92         O99   2.260       .  S
In92        O100   2.246       .  S
In92        O101   2.211       .  S
In92        O104   2.235       .  S
C93          O99   1.266       .  A
C93         O101   1.257       .  A
C93        C1189   1.487       .  S
O94         C102   1.261       .  A
O95         C102   1.261       .  A
C96         O103   1.260       .  A
C96          O97   1.261       .  A
C96        C1122   1.489       .  S
C98         O100   1.262       .  A
C98         O104   1.260       .  A
C98        C1314   1.486       .  S
C102       C1157   1.479       .  S
In105       O107   2.241       .  S
In105       O108   2.239       .  S
In105       O116   2.248       .  S
In105       O110   2.249       .  S
In105       O112   2.258       .  S
In105       O113   2.253       .  S
In105       O114   2.213       .  S
In105       O117   2.229       .  S
C106        O112   1.266       .  A
C106        O114   1.258       .  A
C106       C1106   1.484       .  S
O107        C115   1.261       .  A
O108        C115   1.262       .  A
C109        O116   1.259       .  A
C109        O110   1.260       .  A
C109       C1058   1.485       .  S
C111        O113   1.261       .  A
C111        O117   1.260       .  A
C111       C1074   1.487       .  S
C115       C1090   1.476       .  S
In118       O120   2.251       .  S
In118       O121   2.234       .  S
In118       O129   2.240       .  S
In118       O123   2.249       .  S
In118       O125   2.276       .  S
In118       O126   2.230       .  S
In118       O127   2.217       .  S
In118       O130   2.258       .  S
C119        O125   1.264       .  A
C119        O127   1.254       .  A
C119       C1042   1.486       .  S
O120        C128   1.262       .  A
O121        C128   1.259       .  A
C122        O129   1.261       .  A
C122        O123   1.261       .  A
C122       C1333   1.489       .  S
C124        O126   1.260       .  A
C124        O130   1.261       .  A
C124       C1029   1.470       .  S
C128       C1093   1.488       .  S
In131       O133   2.232       .  S
In131       O134   2.252       .  S
In131       O142   2.250       .  S
In131       O136   2.247       .  S
In131       O138   2.261       .  S
In131       O140   2.228       .  S
In131       O143   2.243       .  S
In131      O1579   2.238       .  S
C132        O138   1.263       .  A
C132        O140   1.258       .  A
C132       C1026   1.473       .  S
O133        C141   1.260       .  A
O134        C141   1.264       .  A
C135        O142   1.260       .  A
C135        O136   1.259       .  A
C135        C981   1.484       .  S
C137        O139   1.262       .  A
C137       O1583   1.260       .  A
C137       C1010   1.484       .  S
O139      In1571   2.238       .  S
C141        C994   1.489       .  S
O143       C1577   1.260   1_554  A
In144       O146   2.230       .  S
In144       O147   2.250       .  S
In144       O155   2.238       .  S
In144       O149   2.257       .  S
In144       O151   2.258       .  S
In144       O152   2.234       .  S
In144       O153   2.218       .  S
In144       O156   2.246       .  S
C145        O151   1.266       .  A
C145        O153   1.259       .  A
C145        C962   1.479       .  S
O146        C154   1.260       .  A
O147        C154   1.261       .  A
C148        O155   1.257       .  A
C148        O149   1.261       .  A
C148       C1285   1.487       .  S
C150        O152   1.261       .  A
C150        O156   1.261       .  A
C150       C1013   1.479       .  S
C154       C1109   1.476       .  S
In157       O159   2.249       .  S
In157       O160   2.242       .  S
In157       O168   2.239       .  S
In157       O162   2.246       .  S
In157       O164   2.259       .  S
In157       O165   2.245       .  S
In157       O166   2.225       .  S
In157       O169   2.242       .  S
C158        O164   1.263       .  A
C158        O166   1.257       .  A
C158       C1077   1.476       .  S
O159        C167   1.261       .  A
O160        C167   1.260       .  A
C161        O168   1.262       .  A
C161        O162   1.261       .  A
C161       C1170   1.490       .  S
C163        O165   1.262       .  A
C163        O169   1.259       .  A
C163        C946   1.483       .  S
C167        C930   1.472       .  S
In170       O172   2.237       .  S
In170       O173   2.255       .  S
In170       O181   2.240       .  S
In170       O175   2.261       .  S
In170       O177   2.257       .  S
In170       O179   2.225       .  S
In170       O182   2.253       .  S
In170      O1618   2.230       .  S
C171        O177   1.265       .  A
C171        O179   1.261       .  A
C171        C914   1.490       .  S
O172        C180   1.259       .  A
O173        C180   1.260       .  A
C174        O181   1.258       .  A
C174        O175   1.260       .  A
C174        C898   1.490       .  S
C176        O178   1.261       .  A
C176       O1622   1.262       .  A
C176        C949   1.483       .  S
O178      In1610   2.230       .  S
C180       C1045   1.474   1_655  S
O182       C1616   1.262   1_554  A
In183       O185   2.254       .  S
In183       O186   2.233       .  S
In183       O194   2.247       .  S
In183       O188   2.254       .  S
In183       O190   2.259       .  S
In183       O191   2.251       .  S
In183       O192   2.226       .  S
In183       O195   2.243       .  S
C184        O190   1.263       .  A
C184        O192   1.260       .  A
C184        C997   1.487       .  S
O185        C193   1.262       .  A
O186        C193   1.259       .  A
C187        O194   1.259       .  A
C187        O188   1.259       .  A
C187       C1141   1.490       .  S
C189        O191   1.261       .  A
C189        O195   1.259       .  A
C189        C917   1.487       .  S
C193        C882   1.484       .  S
In196       O198   2.260       .  S
In196       O199   2.238       .  S
In196       O207   2.234       .  S
In196       O201   2.267       .  S
In196       O203   2.251       .  S
In196       O204   2.243       .  S
In196       O205   2.230       .  S
In196       O208   2.240       .  S
C197        O203   1.264       .  A
C197        O205   1.260       .  A
C197        C933   1.468       .  S
O198        C206   1.259       .  A
O199        C206   1.257       .  A
C200        O207   1.257       .  A
C200        O201   1.260       .  A
C200        C866   1.483       .  S
C202        O204   1.261       .  A
C202        O208   1.261       .  A
C202        C965   1.470   1_655  S
C206        C885   1.478       .  S
In209       O211   2.233       .  S
In209       O212   2.254       .  S
In209       O220   2.249       .  S
In209       O214   2.247       .  S
In209       O216   2.259       .  S
In209       O217   2.242       .  S
In209       O218   2.223       .  S
In209       O221   2.243       .  S
C210        O216   1.265       .  A
C210        O218   1.259       .  A
C210        C850   1.484       .  S
O211        C219   1.261       .  A
O212        C219   1.262       .  A
C213        O220   1.260       .  A
C213        O214   1.259       .  A
C213        C901   1.488       .  S
C215        O217   1.262       .  A
C215        O221   1.260       .  A
C215        C834   1.479       .  S
C219        C818   1.487   1_655  S
In222       O224   2.237       .  S
In222       O225   2.248       .  S
In222       O233   2.241       .  S
In222       O227   2.256       .  S
In222       O229   2.263       .  S
In222       O230   2.232       .  S
In222       O231   2.221       .  S
In222       O234   2.252       .  S
C223        O229   1.265       .  A
C223        O231   1.258       .  A
C223        C802   1.488       .  S
O224        C232   1.259       .  A
O225        C232   1.261       .  A
C226        O233   1.258       .  A
C226        O227   1.261       .  A
C226        C770   1.488       .  S
C228        O230   1.261       .  A
C228        O234   1.262       .  A
C228        C837   1.487       .  S
C232        C786   1.484       .  S
In235       O237   2.253       .  S
In235       O246   2.242       .  S
In235       O240   2.256       .  S
In235       O242   2.258       .  S
In235       O243   2.241       .  S
In235       O244   2.226       .  S
In235       O247   2.244       .  S
In235      O1678   2.232       .  S
C236        O242   1.263       .  A
C236        O244   1.260       .  A
C236        C789   1.489       .  S
O237       C1685   1.262       .  A
O238      In1675   2.232       .  S
O238        C245   1.258   1_556  A
C239        O246   1.258       .  A
C239        O240   1.260       .  A
C239        C869   1.470       .  S
C241        O243   1.261       .  A
C241        O247   1.260       .  A
C241        C738   1.487   1_655  S
C245       O1677   1.262   1_554  A
C245        C754   1.484       .  S
In248       O250   2.249       .  S
In248       O251   2.234       .  S
In248       O259   2.235       .  S
In248       O253   2.256       .  S
In248       O255   2.248       .  S
In248       O256   2.256       .  S
In248       O257   2.220       .  S
In248       O260   2.238       .  S
C249        O255   1.265       .  A
C249        O257   1.262       .  A
C249        C722   1.485       .  S
O250        C258   1.261       .  A
O251        C258   1.260       .  A
C252        O259   1.257       .  A
C252        O253   1.260       .  A
C252        C706   1.485       .  S
C254        O256   1.261       .  A
C254        O260   1.259       .  A
C254        C853   1.476       .  S
C258        C757   1.478       .  S
In261       O263   2.235       .  S
In261       O264   2.258       .  S
In261       O272   2.244       .  S
In261       O266   2.247       .  S
In261       O268   2.246       .  S
In261       O269   2.228       .  S
In261       O270   2.223       .  S
In261       O273   2.252       .  S
C262        O268   1.264       .  A
C262        O270   1.261       .  A
C262        C741   1.478       .  S
O263        C271   1.257       .  A
O264        C271   1.259       .  A
C265        O272   1.259       .  A
C265        O266   1.258       .  A
C265        C661   1.483       .  S
C267        O269   1.260       .  A
C267        O273   1.263       .  A
C267        C690   1.479       .  S
C271        C674   1.477       .  S
In274       O276   2.232       .  S
In274       O277   2.246       .  S
In274       O285   2.240       .  S
In274       O279   2.256       .  S
In274       O281   2.256       .  S
In274       O282   2.234       .  S
In274       O283   2.223       .  S
In274       O286   2.248       .  S
C275        O281   1.265       .  A
C275        O283   1.260       .  A
C275        C642   1.483       .  S
O276        C284   1.260       .  A
O277        C284   1.262       .  A
C278        O285   1.259       .  A
C278        O279   1.260       .  A
C278        C978   1.491       .  S
C280        O282   1.260       .  A
C280        O286   1.262       .  A
C280        C693   1.480       .  S
C284        C725   1.478       .  S
In287       O289   2.246       .  S
In287       O298   2.239       .  S
In287       O292   2.256       .  S
In287       O294   2.258       .  S
In287       O295   2.252       .  S
In287       O296   2.214       .  S
In287       O299   2.235       .  S
In287      O1730   2.238       .  S
C288        O294   1.266       .  A
C288        O296   1.258       .  A
C288        C677   1.480       .  S
O289       C1737   1.261       .  A
O290      In1727   2.238   1_554  S
O290        C297   1.261       .  A
C291        O298   1.258       .  A
C291        O292   1.262       .  A
C291       C1061   1.491       .  S
C293        O295   1.262       .  A
C293        O299   1.261       .  A
C293        C805   1.487       .  S
C297       O1729   1.261   1_554  A
C297        C626   1.478       .  S
In300       O302   2.252       .  S
In300       O303   2.228       .  S
In300       O311   2.240       .  S
In300       O305   2.262       .  S
In300       O307   2.266       .  S
In300       O308   2.253       .  S
In300       O309   2.216       .  S
In300       O312   2.237       .  S
C301        O307   1.267       .  A
C301        O309   1.258       .  A
C301        C821   1.489       .  S
O302        C310   1.264       .  A
O303        C310   1.260       .  A
C304        O311   1.257       .  A
C304        O305   1.261       .  A
C304        C610   1.489       .  S
C306        O308   1.260       .  A
C306        O312   1.259       .  A
C306        C645   1.477       .  S
C310        C629   1.486       .  S
In313       O315   2.258       .  S
In313       O324   2.231       .  S
In313       O318   2.269       .  S
In313       O320   2.268       .  S
In313       O321   2.231       .  S
In313       O322   2.219       .  S
In313       O325   2.244       .  S
In313      O1756   2.230       .  S
C314        O320   1.265       .  A
C314        O322   1.257       .  A
C314        C597   1.479       .  S
O315        C323   1.260   1_554  A
O316      In1753   2.230       .  S
O316       C1763   1.258       .  A
C317        O324   1.258       .  A
C317        O318   1.261       .  A
C317       C1378   1.483       .  S
C319        O321   1.260       .  A
C319        O325   1.264       .  A
C319        C565   1.486       .  S
C323       O1756   1.258   1_556  A
C323       C2018   1.487       .  S
In326       O328   2.239       .  S
In326       O329   2.237       .  S
In326       O337   2.240       .  S
In326       O331   2.260       .  S
In326       O333   2.256       .  S
In326       O334   2.255       .  S
In326       O335   2.225       .  S
In326       O338   2.233       .  S
C327        O333   1.267       .  A
C327        O335   1.259       .  A
C327        C546   1.491       .  S
O328        C336   1.261       .  A
O329        C336   1.262       .  A
C330        O337   1.258       .  A
C330        O331   1.262       .  A
C330        C613   1.491       .  S
C332        O334   1.261       .  A
C332        O338   1.259       .  A
C332        C530   1.477       .  S
C336        C581   1.475       .  S
In339       O341   2.229       .  S
In339       O342   2.256       .  S
In339       O350   2.241       .  S
In339       O344   2.252       .  S
In339       O346   2.252       .  S
In339       O347   2.233       .  S
In339       O348   2.225       .  S
In339       O351   2.240       .  S
C340        O346   1.266       .  A
C340        O348   1.259       .  A
C340        C562   1.487       .  S
O341        C349   1.261       .  A
O342        C349   1.261       .  A
C343        O350   1.259       .  A
C343        O344   1.261       .  A
C343        C773   1.487       .  S
C345        O347   1.262       .  A
C345        O351   1.261       .  A
C345        C514   1.477       .  S
C349        C498   1.487       .  S
In352       O354   2.251       .  S
In352       O355   2.238       .  S
In352       O363   2.227       .  S
In352       O357   2.260       .  S
In352       O359   2.267       .  S
In352       O360   2.230       .  S
In352       O361   2.213       .  S
In352       O364   2.254       .  S
C353        O359   1.263       .  A
C353        O361   1.259       .  A
C353        C482   1.483       .  S
O354        C362   1.263       .  A
O355        C362   1.260       .  A
C356        O363   1.257       .  A
C356        O357   1.260       .  A
C356       C1205   1.470       .  S
C358        O360   1.258       .  A
C358        O364   1.260       .  A
C358        C517   1.483       .  S
C362        C549   1.488       .  S
In365       O367   2.267       .  S
In365       O368   2.222       .  S
In365       O376   2.244       .  S
In365       O370   2.244       .  S
In365       O372   2.263       .  S
In365       O373   2.262       .  S
In365       O374   2.232       .  S
In365       O377   2.221       .  S
C366        O372   1.262       .  A
C366        O374   1.256       .  A
C366        C466   1.471       .  S
O367        C375   1.260       .  A
O368        C375   1.259       .  A
C369        O376   1.259       .  A
C369        O370   1.260       .  A
C369        C709   1.488       .  S
C371        O373   1.264       .  A
C371        O377   1.260       .  A
C371        C485   1.481       .  S
C375        C450   1.477       .  S
In378       O380   2.252       .  S
In378       O389   2.257       .  S
In378       O383   2.236       .  S
In378       O385   2.279       .  S
In378       O386   2.234       .  S
In378       O387   2.223       .  S
In378       O390   2.258       .  S
In378      O1821   2.226       .  S
C379        O385   1.263       .  A
C379        O387   1.254       .  A
C379        C501   1.482       .  S
O380        C388   1.263   1_554  A
O381      In1818   2.226       .  S
O381       C1828   1.260       .  A
C382        O389   1.262       .  A
C382        O383   1.259       .  A
C382       C1125   1.482       .  S
C384        O386   1.257       .  A
C384        O390   1.259       .  A
C384        C434   1.468       .  S
C388       O1821   1.260   1_556  A
C388       C1893   1.471       .  S
In391       O393   2.235       .  S
In391       O394   2.250       .  S
In391       O402   2.238       .  S
In391       O396   2.255       .  S
In391       O398   2.261       .  S
In391       O399   2.229       .  S
In391       O400   2.219       .  S
In391       O403   2.254       .  S
C392        O398   1.263       .  A
C392        O400   1.258       .  A
C392        C437   1.473       .  S
O393        C401   1.261       .  A
O394        C401   1.262       .  A
C395        O402   1.258       .  A
C395        O396   1.258       .  A
C395        C658   1.488       .  S
C397        O399   1.260       .  A
C397        O403   1.260       .  A
C397        C421   1.487       .  S
C401        C594   1.473       .  S
In404       O406   2.261       .  S
In404       O407   2.248       .  S
In404       O415   2.261       .  S
In404       O409   2.240       .  S
In404       O411   2.263       .  S
In404       O412   2.248       .  S
In404       O413   2.229       .  S
In404       O416   2.230       .  S
C405        O411   1.262       .  A
C405        O413   1.259       .  A
C405        C533   1.488       .  S
O406        C414   1.261       .  A
O407        C414   1.261       .  A
C408        O415   1.260       .  A
C408        O409   1.259       .  A
C408       C1250   1.473       .  S
C410        O412   1.262       .  A
C410        O416   1.259       .  A
C410        C418   1.474       .  S
C414        C469   1.482       .  S
C417        C418   1.401       .  A
C417        C422   1.408       .  A
C417        H424   1.084       .  S
C418        C419   1.414       .  A
C419        C420   1.399       .  A
C419        C426   1.511       .  S
C420        C421   1.405       .  A
C420        H425   1.083       .  S
C421        C422   1.420       .  A
C422        C423   1.507       .  S
C423        H427   1.111       .  S
C423        H428   1.109       .  S
C423        H429   1.111       .  S
C426        H430   1.111       .  S
C426        H431   1.110       .  S
C426        H432   1.111       .  S
C433        C434   1.402       .  A
C433        C438   1.407       .  A
C433        H440   1.084       .  S
C434        C435   1.411       .  A
C435        C436   1.398       .  A
C435        C442   1.508       .  S
C436        C437   1.402       .  A
C436        H441   1.084       .  S
C437        C438   1.414       .  A
C438        C439   1.505       .  S
C439        H443   1.111       .  S
C439        H444   1.110       .  S
C439        H445   1.110       .  S
C442        H446   1.110       .  S
C442        H447   1.110       .  S
C442        H448   1.111       .  S
C449        C450   1.399       .  A
C449        C454   1.394       .  A
C449        H456   1.084       .  S
C450        C451   1.416       .  A
C451        C452   1.412       .  A
C451        C458   1.505       .  S
C452        C453   1.404       .  A
C452        H457   1.084       .  S
C453       C1828   1.471       .  S
C453        C454   1.413       .  A
C454        C455   1.510       .  S
C455        H459   1.111       .  S
C455        H460   1.108       .  S
C455        H461   1.109       .  S
C458        H462   1.110       .  S
C458        H463   1.110       .  S
C458        H464   1.111       .  S
C465        C466   1.398       .  A
C465        C470   1.403       .  A
C465        H472   1.085       .  S
C466        C467   1.411       .  A
C467        C468   1.402       .  A
C467        C474   1.504       .  S
C468        C469   1.403       .  A
C468        H473   1.084       .  S
C469        C470   1.416       .  A
C470        C471   1.499       .  S
C471        H475   1.111       .  S
C471        H476   1.108       .  S
C471        H477   1.107       .  S
C474        H478   1.110       .  S
C474        H479   1.104       .  S
C474        H480   1.111       .  S
C481        C482   1.401       .  A
C481        C486   1.395       .  A
C481        H488   1.084       .  S
C482        C483   1.417       .  A
C483        C484   1.411       .  A
C483        C490   1.506       .  S
C484        C485   1.405       .  A
C484        H489   1.084       .  S
C485        C486   1.414       .  A
C486        C487   1.506       .  S
C487        H491   1.111       .  S
C487        H492   1.110       .  S
C487        H493   1.109       .  S
C490        H494   1.110       .  S
C490        H495   1.111       .  S
C490        H496   1.111       .  S
C497        C498   1.403       .  A
C497        C502   1.398       .  A
C497        H504   1.084       .  S
C498        C499   1.419       .  A
C499        C500   1.409       .  A
C499        C506   1.507       .  S
C500        C501   1.404       .  A
C500        H505   1.084       .  S
C501        C502   1.417       .  A
C502        C503   1.509       .  S
C503        H508   1.108       .  S
C503       H1947   1.111       .  S
C503       H1949   1.109       .  S
C506        H510   1.110       .  S
C506        H511   1.110       .  S
C506        H512   1.111       .  S
H507       C1943   1.111       .  S
H509       C1943   1.109       .  S
C513        C514   1.402       .  A
C513        C518   1.404       .  A
C513        H520   1.084       .  S
C514        C515   1.415       .  A
C515        C516   1.402       .  A
C515        C522   1.509       .  S
C516        C517   1.405       .  A
C516        H521   1.084       .  S
C517        C518   1.417       .  A
C518        C519   1.507       .  S
C519        H523   1.111       .  S
C519        H524   1.110       .  S
C519        H525   1.110       .  S
C522        H526   1.110       .  S
C522        H527   1.110       .  S
C522        H528   1.111       .  S
C529        C530   1.402       .  A
C529        C534   1.408       .  A
C529        H536   1.084       .  S
C530        C531   1.413       .  A
C531        C532   1.400       .  A
C531        C538   1.509       .  S
C532        C533   1.406       .  A
C532        H537   1.083       .  S
C533        C534   1.419       .  A
C534        C535   1.507       .  S
C535        H539   1.111       .  S
C535        H540   1.110       .  S
C535        H541   1.111       .  S
C538        H542   1.109       .  S
C538        H543   1.109       .  S
C538        H544   1.111       .  S
C545        C546   1.405       .  A
C545        C550   1.406       .  A
C545        H552   1.084       .  S
C546        C547   1.421       .  A
C547        C548   1.404       .  A
C547        C554   1.509       .  S
C548        C549   1.403       .  A
C548        H553   1.084       .  S
C549        C550   1.418       .  A
C550        C551   1.508       .  S
C551        H555   1.111       .  S
C551        H556   1.110       .  S
C551        H557   1.111       .  S
C554        H558   1.109       .  S
C554        H559   1.110       .  S
C554        H560   1.111       .  S
C561        C562   1.404       .  A
C561        C566   1.404       .  A
C561        H568   1.084       .  S
C562        C563   1.420       .  A
C563        C564   1.403       .  A
C563        C570   1.509       .  S
C564        C565   1.403       .  A
C564        H569   1.084       .  S
C565        C566   1.418       .  A
C566        C567   1.508       .  S
C567        H572   1.110       .  S
C567       H2011   1.111       .  S
C567       H2013   1.110   1_554  S
C570        H574   1.110       .  S
C570        H575   1.110       .  S
C570        H576   1.111       .  S
H571       C2007   1.111       .  S
H573       C2007   1.110       .  S
C577        C578   1.406       .  A
C577        C582   1.401       .  A
C577        H584   1.084       .  S
C578       C1763   1.487       .  S
C578        C579   1.419       .  A
C579        C580   1.406       .  A
C579        C586   1.507       .  S
C580        C581   1.401       .  A
C580        H585   1.084       .  S
C581        C582   1.413       .  A
C582        C583   1.509       .  S
C583        H587   1.111       .  S
C583        H588   1.110       .  S
C583        H589   1.110       .  S
C586        H590   1.111       .  S
C586        H592   1.111       .  S
C586       H2031   1.110       .  S
H591       C2026   1.110       .  S
C593        C594   1.400       .  A
C593        C598   1.401       .  A
C593        H600   1.084       .  S
C594        C595   1.411       .  A
C595        C596   1.407       .  A
C595        C602   1.506       .  S
C596        C597   1.405       .  A
C596        H601   1.083       .  S
C597        C598   1.417       .  A
C598        C599   1.510       .  S
C599        H603   1.111       .  S
C599        H604   1.111       .  S
C599        H605   1.109       .  S
C602        H606   1.110       .  S
C602        H607   1.111       .  S
C602        H608   1.110       .  S
C609        C610   1.404       .  A
C609        C614   1.406       .  A
C609        H616   1.084       .  S
C610        C611   1.418       .  A
C611        C612   1.405       .  A
C611        C618   1.508       .  S
C612        C613   1.405       .  A
C612        H617   1.083       .  S
C613        C614   1.419       .  A
C614        C615   1.508       .  S
C615        H619   1.111       .  S
C615        H620   1.111       .  S
C615        H621   1.110       .  S
C618        H622   1.111       .  S
C618        H623   1.109       .  S
C618        H624   1.111       .  S
C625        C626   1.402       .  A
C625        C630   1.403       .  A
C625        H632   1.085       .  S
C626        C627   1.412       .  A
C627        C628   1.405       .  A
C627        C634   1.507       .  S
C628        C629   1.407       .  A
C628        H633   1.084       .  S
C629        C630   1.419       .  A
C630        C631   1.509       .  S
C631        H635   1.111       .  S
C631        H636   1.109       .  S
C631        H637   1.110       .  S
C634        H638   1.108       .  S
C634        H639   1.111       .  S
C634        H640   1.111       .  S
C641        C642   1.405       .  A
C641        C646   1.400       .  A
C641        H648   1.084       .  S
C642        C643   1.416       .  A
C643        C644   1.407       .  A
C643        C650   1.506       .  S
C644        C645   1.403       .  A
C644        H649   1.084       .  S
C645        C646   1.414       .  A
C646        C647   1.509       .  S
C647        H651   1.111       .  S
C647        H652   1.110       .  S
C647        H653   1.109       .  S
C650        H654   1.110       .  S
C650        H655   1.111       .  S
C650        H656   1.111       .  S
C657        C658   1.406       .  A
C657        C662   1.402       .  A
C657        H664   1.084       .  S
C658       C2099   1.418   1_554  A
C659        C660   1.404       .  A
C659       C2098   1.418       .  A
C659        C666   1.508       .  S
C660        C661   1.404       .  A
C660        H665   1.085       .  S
C661       C2102   1.416       .  A
C662       C2101   1.416   1_554  A
C662        C663   1.509       .  S
C663        H667   1.111       .  S
C663        H668   1.110       .  S
C663        H669   1.110       .  S
C666        H670   1.110       .  S
C666        H671   1.110       .  S
C666        H672   1.111       .  S
C673        C674   1.402       .  A
C673        C678   1.400       .  A
C673        H680   1.084       .  S
C674        C675   1.414       .  A
C675        C676   1.406       .  A
C675        C682   1.507       .  S
C676        C677   1.405       .  A
C676        H681   1.084       .  S
C677        C678   1.417       .  A
C678        C679   1.510       .  S
C679        H683   1.111       .  S
C679        H684   1.111       .  S
C679        H685   1.109       .  S
C682        H686   1.110       .  S
C682        H687   1.111       .  S
C682        H688   1.111       .  S
C689        C690   1.404       .  A
C689        C694   1.404       .  A
C689        H696   1.084       .  S
C690        C691   1.414       .  A
C691        C692   1.403       .  A
C691        C698   1.508       .  S
C692        C693   1.404       .  A
C692        H697   1.085       .  S
C693        C694   1.415       .  A
C694        C695   1.508       .  S
C695        H699   1.111       .  S
C695        H700   1.110       .  S
C695        H701   1.109       .  S
C698        H702   1.110       .  S
C698        H703   1.109       .  S
C698        H704   1.111       .  S
C705        C706   1.405       .  A
C705        C710   1.405       .  A
C705        H712   1.084       .  S
C706        C707   1.417       .  A
C707        C708   1.403       .  A
C707        C714   1.509       .  S
C708        C709   1.405       .  A
C708        H713   1.083       .  S
C709        C710   1.418       .  A
C710        C711   1.508       .  S
C711        H715   1.111       .  S
C711        H716   1.111       .  S
C711        H717   1.110       .  S
C714        H718   1.111       .  S
C714        H719   1.109       .  S
C714        H720   1.111       .  S
C721        C722   1.406   1_455  A
C721        C726   1.400       .  A
C721        H728   1.084   1_455  S
C722        C723   1.417       .  A
C723        C724   1.406   1_655  A
C723        C730   1.507       .  S
C724        C725   1.403       .  A
C724        H729   1.084       .  S
C725        C726   1.414       .  A
C726        C727   1.509       .  S
C727        H731   1.111       .  S
C727        H732   1.109       .  S
C727        H733   1.111       .  S
C730        H734   1.111       .  S
C730        H735   1.110       .  S
C730        H736   1.111       .  S
C737        C738   1.407       .  A
C737        C742   1.404       .  A
C737        H744   1.084       .  S
C738        C739   1.419       .  A
C739        C740   1.402       .  A
C739        C746   1.507       .  S
C740        C741   1.402       .  A
C740        H745   1.085       .  S
C741        C742   1.413       .  A
C742        C743   1.508       .  S
C743        H748   1.111       .  S
C743       H2187   1.111       .  S
C743       H2189   1.109       .  S
C746        H750   1.109       .  S
C746        H751   1.107       .  S
C746        H752   1.111       .  S
H747       C2183   1.111   1_554  S
H749       C2183   1.109       .  S
C753        C754   1.406       .  A
C753        C758   1.404       .  A
C753        H760   1.084       .  S
C754        C755   1.418       .  A
C755        C756   1.404       .  A
C755        C762   1.508       .  S
C756        C757   1.403       .  A
C756        H761   1.085       .  S
C757        C758   1.413       .  A
C758        C759   1.508       .  S
C759        H763   1.111       .  S
C759        H764   1.108       .  S
C759        H765   1.111       .  S
C762        H766   1.109       .  S
C762        H767   1.110       .  S
C762        H768   1.111       .  S
C769        C774   1.405       .  A
C769       C2210   1.405   1_554  A
C769        H776   1.084       .  S
C770        C771   1.418       .  A
C770       C2209   1.405       .  A
C771        C772   1.405       .  A
C771        C778   1.508       .  S
C772       C2213   1.405       .  A
C772        H777   1.084       .  S
C773        C774   1.417       .  A
C773       C2212   1.405   1_554  A
C774        C775   1.508       .  S
C775        H779   1.111       .  S
C775        H780   1.109       .  S
C775        H781   1.110       .  S
C778        H782   1.109       .  S
C778        H783   1.110       .  S
C778        H784   1.111       .  S
C785        C786   1.405       .  A
C785        C790   1.406       .  A
C785        H792   1.084       .  S
C786        C787   1.416       .  A
C787        C788   1.401       .  A
C787        C794   1.509       .  S
C788        C789   1.406       .  A
C788        H793   1.084       .  S
C789        C790   1.417       .  A
C790        C791   1.507       .  S
C791        H795   1.111       .  S
C791        H796   1.110       .  S
C791        H797   1.110       .  S
C794        H798   1.110       .  S
C794        H799   1.111       .  S
C794        H800   1.111       .  S
C801        C802   1.406       .  A
C801        C806   1.407   1_655  A
C801        H808   1.084       .  S
C802        C803   1.419   1_655  A
C803        C804   1.401       .  A
C803        C810   1.510   1_455  S
C804        C805   1.403       .  A
C804        H809   1.084       .  S
C805        C806   1.417       .  A
C806        C807   1.507       .  S
C807        H811   1.111       .  S
C807        H812   1.110       .  S
C807        H813   1.110       .  S
C810        H814   1.110       .  S
C810        H815   1.110       .  S
C810        H816   1.111   1_655  S
C817        C818   1.403       .  A
C817        C822   1.401       .  A
C817        H824   1.084       .  S
C818        C819   1.417       .  A
C819        C820   1.408       .  A
C819        C826   1.507       .  S
C820        C821   1.406       .  A
C820        H825   1.084       .  S
C821        C822   1.420       .  A
C822        C823   1.510       .  S
C823        H827   1.111       .  S
C823        H828   1.109       .  S
C823        H829   1.110       .  S
C826        H830   1.110       .  S
C826        H831   1.110       .  S
C826        H832   1.111       .  S
C833        C834   1.402       .  A
C833        C838   1.406       .  A
C833        H840   1.084       .  S
C834        C835   1.415       .  A
C835        C836   1.403       .  A
C835        C842   1.509       .  S
C836        C837   1.405       .  A
C836        H841   1.084       .  S
C837        C838   1.418       .  A
C838        C839   1.507       .  S
C839        H843   1.111       .  S
C839        H844   1.110       .  S
C839        H845   1.110       .  S
C842        H846   1.111       .  S
C842        H847   1.110       .  S
C842        H848   1.111       .  S
C849        C850   1.406       .  A
C849        C854   1.407       .  A
C849        H856   1.083       .  S
C850        C851   1.418       .  A
C851        C852   1.401       .  A
C851        C858   1.510       .  S
C852        C853   1.401       .  A
C852        H857   1.084       .  S
C853        C854   1.412       .  A
C854        C855   1.506       .  S
C855        H859   1.111       .  S
C855        H860   1.111       .  S
C855        H861   1.109       .  S
C858        H862   1.109       .  S
C858        H863   1.111       .  S
C858        H864   1.111       .  S
C865        C866   1.404       .  A
C865        C870   1.398   1_565  A
C865        H872   1.084       .  S
C866        C867   1.418       .  A
C867        C868   1.410   1_565  A
C867        C874   1.506       .  S
C868        C869   1.401       .  A
C868        H873   1.084       .  S
C869        C870   1.408       .  A
C870        C871   1.506       .  S
C871        H875   1.111       .  S
C871        H876   1.111       .  S
C871        H877   1.110       .  S
C874        H878   1.109       .  S
C874        H879   1.111       .  S
C874        H880   1.111       .  S
C881        C882   1.406       .  A
C881        C886   1.404       .  A
C881        H888   1.084       .  S
C882        C883   1.417       .  A
C883        C884   1.404       .  A
C883        C890   1.508       .  S
C884        C885   1.403       .  A
C884        H889   1.084       .  S
C885        C886   1.413       .  A
C886        C887   1.508       .  S
C887        H891   1.111       .  S
C887        H892   1.108       .  S
C887        H893   1.111       .  S
C890        H894   1.109       .  S
C890        H895   1.110       .  S
C890        H896   1.111       .  S
C897        C898   1.405       .  A
C897        C902   1.403       .  A
C897        H904   1.085       .  S
C898        C899   1.418       .  A
C899        C900   1.406       .  A
C899        C906   1.508       .  S
C900        C901   1.406       .  A
C900        H905   1.085       .  S
C901        C902   1.418       .  A
C902        C903   1.509       .  S
C903        H907   1.111       .  S
C903        H908   1.110       .  S
C903        H909   1.110       .  S
C906        H910   1.110       .  S
C906        H911   1.110       .  S
C906        H912   1.111       .  S
C913        C914   1.407       .  A
C913        C918   1.402       .  A
C913        H920   1.084       .  S
C914        C915   1.417       .  A
C915        C916   1.407       .  A
C915        C922   1.507       .  S
C916        C917   1.406       .  A
C916        H921   1.084       .  S
C917        C918   1.416       .  A
C918        C919   1.509       .  S
C919        H923   1.111       .  S
C919        H924   1.111       .  S
C919        H925   1.110       .  S
C922        H926   1.110       .  S
C922        H927   1.110       .  S
C922        H928   1.111       .  S
C929        C930   1.403       .  A
C929        C934   1.405       .  A
C929        H936   1.084       .  S
C930        C931   1.414       .  A
C931        C932   1.403       .  A
C931        C938   1.508       .  S
C932        C933   1.400       .  A
C932        H937   1.084       .  S
C933        C934   1.410       .  A
C934        C935   1.506       .  S
C935        H939   1.111       .  S
C935        H940   1.110       .  S
C935        H941   1.110       .  S
C938        H942   1.111       .  S
C938        H943   1.110       .  S
C938        H944   1.111       .  S
C945        C946   1.404       .  A
C945        C950   1.405       .  A
C945        H952   1.084       .  S
C946        C947   1.417       .  A
C947        C948   1.403       .  A
C947        C954   1.509       .  S
C948        C949   1.403       .  A
C948        H953   1.084       .  S
C949        C950   1.416       .  A
C950        C951   1.507       .  S
C951        H955   1.111       .  S
C951        H957   1.110       .  S
C951       H2396   1.110       .  S
C954        H958   1.109       .  S
C954        H959   1.110       .  S
C954        H960   1.111       .  S
H956       C2391   1.110       .  S
C961        C962   1.405       .  A
C961        C966   1.405       .  A
C961        H968   1.084       .  S
C962        C963   1.418       .  A
C963        C964   1.401       .  A
C963        C970   1.509       .  S
C964        C965   1.399       .  A
C964        H969   1.085       .  S
C965        C966   1.411       .  A
C966        C967   1.506       .  S
C967        H971   1.111       .  S
C967        H972   1.111       .  S
C967        H973   1.110       .  S
C970        H974   1.109       .  S
C970        H975   1.110       .  S
C970        H976   1.111       .  S
C977        C978   1.406   1_565  A
C977        C982   1.403       .  A
C977        H984   1.084       .  S
C978        C979   1.419       .  A
C979        C980   1.406       .  A
C979        C986   1.508       .  S
C980        C981   1.404   1_545  A
C980        H985   1.085       .  S
C981        C982   1.416       .  A
C982        C983   1.509       .  S
C983        H987   1.111       .  S
C983        H988   1.110       .  S
C983        H989   1.111       .  S
C986        H990   1.110       .  S
C986        H991   1.110       .  S
C986        H992   1.111       .  S
C993        C994   1.407       .  A
C993        C998   1.407   1_455  A
C993       H1000   1.084       .  S
C994        C995   1.419       .  A
C995        C996   1.401   1_455  A
C995       C1002   1.508       .  S
C996        C997   1.404       .  A
C996       H1001   1.084       .  S
C997        C998   1.416       .  A
C998        C999   1.507       .  S
C999       H1003   1.111       .  S
C999       H1004   1.110       .  S
C999       H1005   1.110       .  S
C1002      H1006   1.110       .  S
C1002      H1007   1.107       .  S
C1002      H1008   1.111       .  S
C1009      C1010   1.405       .  A
C1009      C1014   1.404       .  A
C1009      H1016   1.084       .  S
C1010      C1011   1.418       .  A
C1011      C1012   1.404       .  A
C1011      C1018   1.508       .  S
C1012      C1013   1.402       .  A
C1012      H1017   1.084       .  S
C1013      C1014   1.415       .  A
C1014      C1015   1.508       .  S
C1015      H1019   1.111       .  S
C1015      H1020   1.111       .  S
C1015      H1021   1.110       .  S
C1018      H1024   1.111       .  S
C1018      H2462   1.110       .  S
C1018      H2463   1.110       .  S
H1022      C2458   1.110       .  S
H1023      C2458   1.110       .  S
C1025      C1026   1.404       .  A
C1025      C1030   1.407       .  A
C1025      H1032   1.084       .  S
C1026      C1027   1.413       .  A
C1027      C1028   1.399       .  A
C1027      C1034   1.507       .  S
C1028      C1029   1.400       .  A
C1028      H1033   1.085       .  S
C1029      C1030   1.411       .  A
C1030      C1031   1.506       .  S
C1031      H1035   1.111       .  S
C1031      H1036   1.110       .  S
C1031      H1037   1.110       .  S
C1034      H1038   1.110       .  S
C1034      H1039   1.110       .  S
C1034      H1040   1.111       .  S
C1041      C1042   1.407       .  A
C1041      C1046   1.407       .  A
C1041      H1048   1.083       .  S
C1042      C1043   1.421       .  A
C1043      C1044   1.400       .  A
C1043      C1050   1.510       .  S
C1044      C1045   1.399       .  A
C1044      H1049   1.084       .  S
C1045      C1046   1.411       .  A
C1046      C1047   1.506       .  S
C1047      H1051   1.111       .  S
C1047      H1052   1.110       .  S
C1047      H1053   1.111       .  S
C1050      H1054   1.111       .  S
C1050      H1055   1.110       .  S
C1050      H1056   1.111       .  S
C1057      C1058   1.404       .  A
C1057      C1062   1.404       .  A
C1057      H1064   1.084       .  S
C1058      C1059   1.415       .  A
C1059      C1060   1.406       .  A
C1059      C1066   1.508       .  S
C1060      C1061   1.407       .  A
C1060      H1065   1.083       .  S
C1061      C1062   1.420       .  A
C1062      C1063   1.509       .  S
C1063      H1067   1.111       .  S
C1063      H1068   1.110       .  S
C1063      H1069   1.110       .  S
C1066      H1070   1.111       .  S
C1066      H1071   1.109       .  S
C1066      H1072   1.111       .  S
C1073      C1074   1.405       .  A
C1073      C1078   1.398       .  A
C1073      H1080   1.085       .  S
C1074      C1075   1.419       .  A
C1075      C1076   1.407   1_455  A
C1075      C1082   1.507       .  S
C1076      C1077   1.402       .  A
C1076      H1081   1.084       .  S
C1077      C1078   1.417   1_655  A
C1078      C1079   1.511   1_455  S
C1079      H1083   1.110   1_655  S
C1079      H1084   1.111   1_655  S
C1079      H1085   1.104       .  S
C1082      H1086   1.110       .  S
C1082      H1087   1.110       .  S
C1082      H1088   1.111       .  S
C1089      C1090   1.401       .  A
C1089      C1094   1.402       .  A
C1089      H1096   1.085       .  S
C1090      C1091   1.410       .  A
C1091      C1092   1.405       .  A
C1091      C1098   1.507       .  S
C1092      C1093   1.408       .  A
C1092      H1097   1.084       .  S
C1093      C1094   1.420       .  A
C1094      C1095   1.509       .  S
C1095      H1099   1.111       .  S
C1095      H1100   1.110       .  S
C1095      H1101   1.110       .  S
C1098      H1102   1.109       .  S
C1098      H1103   1.111       .  S
C1098      H1104   1.111       .  S
C1105      C1106   1.407       .  A
C1105      C1110   1.406       .  A
C1105      H1112   1.083       .  S
C1106      C1107   1.420       .  A
C1107      C1108   1.399       .  A
C1107      C1114   1.510       .  S
C1108      C1109   1.400       .  A
C1108      H1113   1.083       .  S
C1109      C1110   1.412       .  A
C1110      C1111   1.506       .  S
C1111      H1115   1.111       .  S
C1111      H1116   1.109       .  S
C1111      H1117   1.111       .  S
C1114      H1118   1.111       .  S
C1114      H1119   1.110       .  S
C1114      H1120   1.111       .  S
C1121      C1122   1.405   1_545  A
C1121      C1126   1.401       .  A
C1121      H1128   1.084       .  S
C1122      C1123   1.419       .  A
C1123      C1124   1.408   1_565  A
C1123      C1130   1.507       .  S
C1124      C1125   1.403       .  A
C1124      H1129   1.084       .  S
C1125      C1126   1.415       .  A
C1126      C1127   1.509       .  S
C1127      H1131   1.111       .  S
C1127      H1132   1.111       .  S
C1127      H1133   1.109       .  S
C1130      H1134   1.109       .  S
C1130      H1135   1.110       .  S
C1130      H1136   1.111       .  S
C1137      C1138   1.405       .  A
C1137      C1142   1.405       .  A
C1137      H1144   1.085       .  S
C1138      C2579   1.417       .  A
C1139      C1140   1.405       .  A
C1139      C2578   1.417   1_554  A
C1139      C1146   1.508       .  S
C1140      C1141   1.406       .  A
C1140      H1145   1.085       .  S
C1141      C2582   1.418   1_554  A
C1142      C2581   1.418       .  A
C1142      C1143   1.508       .  S
C1143      H1147   1.111       .  S
C1143      H1148   1.110       .  S
C1143      H1149   1.110       .  S
C1146      H1150   1.110       .  S
C1146      H1151   1.110       .  S
C1146      H1152   1.111       .  S
C1153      C1154   1.405       .  A
C1153      C1158   1.403       .  A
C1153      H1160   1.084       .  S
C1154      C1155   1.418       .  A
C1155      C1156   1.404       .  A
C1155      C1162   1.508       .  S
C1156      C1157   1.402       .  A
C1156      H1161   1.084       .  S
C1157      C1158   1.415       .  A
C1158      C1159   1.509       .  S
C1159      H1163   1.111       .  S
C1159      H1164   1.110       .  S
C1159      H1165   1.111       .  S
C1162      H1166   1.110       .  S
C1162      H1167   1.110       .  S
C1162      H1168   1.111       .  S
C1169      C1170   1.405       .  A
C1169      C1174   1.403       .  A
C1169      H1176   1.084       .  S
C1170      C1171   1.420       .  A
C1171      C1172   1.406       .  A
C1171      C1178   1.508       .  S
C1172      C1173   1.403       .  A
C1172      H1177   1.085       .  S
C1173      C1174   1.417       .  A
C1174      C1175   1.509       .  S
C1175      H1179   1.111       .  S
C1175      H1180   1.110       .  S
C1175      H1181   1.111       .  S
C1178      H1182   1.110       .  S
C1178      H1183   1.110       .  S
C1178      H1184   1.111       .  S
C1185      C1186   1.404       .  A
C1185      C1190   1.400       .  A
C1185      H1192   1.084       .  S
C1186      C1187   1.418       .  A
C1187      C1188   1.407       .  A
C1187      C1194   1.507       .  S
C1188      C1189   1.405       .  A
C1188      H1193   1.084       .  S
C1189      C1190   1.420       .  A
C1190      C1191   1.510       .  S
C1191      H1195   1.111       .  S
C1191      H1196   1.110       .  S
C1191      H1197   1.110       .  S
C1194      H1198   1.110       .  S
C1194      H1199   1.110       .  S
C1194      H1200   1.111       .  S
C1201      C1202   1.404       .  A
C1201      C1206   1.397       .  A
C1201      H1208   1.084       .  S
C1202      C1203   1.415       .  A
C1203      C1204   1.410       .  A
C1203      C1210   1.505       .  S
C1204      C1205   1.403       .  A
C1204      H1209   1.084       .  S
C1205      C1206   1.410       .  A
C1206      C1207   1.510       .  S
C1207      H1211   1.111       .  S
C1207      H1212   1.111       .  S
C1207      H1213   1.110       .  S
C1210      H1214   1.111       .  S
C1210      H1215   1.110       .  S
C1210      H1216   1.111       .  S
C1217      C1218   1.406       .  A
C1217      C1222   1.395       .  A
C1217      H1224   1.084       .  S
C1218      C1219   1.419       .  A
C1219      C1220   1.413       .  A
C1219      C1226   1.505       .  S
C1220      C1221   1.402       .  A
C1220      H1225   1.083       .  S
C1221      C1222   1.408       .  A
C1222      C1223   1.510       .  S
C1223      H1227   1.111       .  S
C1223      H1228   1.110       .  S
C1223      H1229   1.110       .  S
C1226      H1230   1.109       .  S
C1226      H1231   1.111       .  S
C1226      H1232   1.111       .  S
C1233      C1234   1.408       .  A
C1233      C1238   1.406       .  A
C1233      H1240   1.084       .  S
C1234      C1235   1.417       .  A
C1235      C1236   1.401       .  A
C1235      C2682   1.509       .  S
C1236      C1237   1.404       .  A
C1236      H1241   1.085       .  S
C1237      C1238   1.413       .  A
C1238      C1239   1.507       .  S
C1239      H1243   1.111       .  S
C1239      H1244   1.111       .  S
C1239      H1245   1.110       .  S
C1242      C2675   1.509       .  S
C1242      H1246   1.110       .  S
C1242      H1247   1.110       .  S
C1242      H1248   1.111   1_556  S
C1249      C1250   1.404       .  A
C1249      C1254   1.413   1_545  A
C1249      H1256   1.084       .  S
C1250      C1251   1.408       .  A
C1251      C1252   1.393   1_545  A
C1251      C1258   1.500       .  S
C1252      C1253   1.399       .  A
C1252      H1257   1.085       .  S
C1253      C1254   1.416       .  A
C1254      C1255   1.505       .  S
C1255      H1259   1.111       .  S
C1255      H1260   1.111       .  S
C1255      H1261   1.109       .  S
C1258      H1262   1.109       .  S
C1258      H1263   1.109       .  S
C1258      H1264   1.111       .  S
C1265      C1266   1.401       .  A
C1265      C1270   1.403       .  A
C1265      H1272   1.084       .  S
C1266      C1267   1.415       .  A
C1267      C1268   1.405       .  A
C1267      C1274   1.508       .  S
C1268      C1269   1.405       .  A
C1268      H1273   1.084       .  S
C1269      C1270   1.420       .  A
C1270      C1271   1.509       .  S
C1271      H1275   1.111       .  S
C1271      H1276   1.111       .  S
C1271      H1277   1.110       .  S
C1274      H1278   1.109       .  S
C1274      H1279   1.111       .  S
C1274      H1280   1.111       .  S
C1281      C1282   1.405       .  A
C1281      C1286   1.404       .  A
C1281      H1288   1.083       .  S
C1282      C1283   1.419       .  A
C1283      C1284   1.405       .  A
C1283      C1290   1.508       .  S
C1284      C1285   1.405       .  A
C1284      H1289   1.084       .  S
C1285      C1286   1.417       .  A
C1286      C1287   1.509       .  S
C1287      H1291   1.111       .  S
C1287      H1292   1.110       .  S
C1287      H1293   1.110       .  S
C1290      H1294   1.110       .  S
C1290      H1295   1.110       .  S
C1290      H1296   1.111       .  S
C1297      C1298   1.406       .  A
C1297      C1302   1.400       .  A
C1297      H1304   1.084       .  S
C1298      C1299   1.419       .  A
C1299      C1300   1.407       .  A
C1299      C1306   1.507       .  S
C1300      C1301   1.401       .  A
C1300      H1305   1.084       .  S
C1301      C1302   1.413       .  A
C1302      C1303   1.510       .  S
C1303      H1307   1.111       .  S
C1303      H1308   1.110       .  S
C1303      H1309   1.110       .  S
C1306      H1310   1.110       .  S
C1306      H1311   1.111       .  S
C1306      H1312   1.111       .  S
C1313      C1314   1.407       .  A
C1313      C1318   1.406       .  A
C1313      H1320   1.084       .  S
C1314      C1315   1.417       .  A
C1315      C1316   1.401       .  A
C1315      C1322   1.509       .  S
C1316      C1317   1.405       .  A
C1316      H1321   1.084       .  S
C1317      C1318   1.416       .  A
C1318      C1319   1.507       .  S
C1319      H1323   1.111       .  S
C1319      H1324   1.110       .  S
C1319      H1325   1.110       .  S
C1322      H1326   1.110       .  S
C1322      H1327   1.110       .  S
C1322      H1328   1.111       .  S
C1329      C1330   1.405       .  A
C1329      C1334   1.404       .  A
C1329      H1336   1.085       .  S
C1330      C2771   1.417       .  A
C1331      C1332   1.405       .  A
C1331      C2770   1.417   1_554  A
C1331      C1338   1.508       .  S
C1332      C1333   1.406       .  A
C1332      H1337   1.085       .  S
C1333      C2774   1.418   1_554  A
C1334      C2773   1.418       .  A
C1334      C1335   1.508       .  S
C1335      H1339   1.111       .  S
C1335      H1340   1.110       .  S
C1335      H1341   1.110       .  S
C1338      H1342   1.110       .  S
C1338      H1343   1.110       .  S
C1338      H1344   1.111       .  S
C1345      C1346   1.404       .  A
C1345      C1350   1.408       .  A
C1345      H1352   1.084       .  S
C1346      C1347   1.414       .  A
C1347      C1348   1.398       .  A
C1347      C1354   1.509       .  S
C1348      C1349   1.405       .  A
C1348      H1353   1.084       .  S
C1349      C1350   1.417       .  A
C1350      C1351   1.507       .  S
C1351      H1355   1.111       .  S
C1351      H1356   1.110       .  S
C1351      H1357   1.111       .  S
C1354      H1358   1.109       .  S
C1354      H1359   1.109       .  S
C1354      H1360   1.111       .  S
C1361      C1362   1.404       .  A
C1361      C1366   1.403       .  A
C1361      H1368   1.084       .  S
C1362      C1363   1.421       .  A
C1363      C1364   1.403       .  A
C1363      C1370   1.508       .  S
C1364      C1365   1.401       .  A
C1364      H1369   1.084       .  S
C1365      C1366   1.416       .  A
C1366      C1367   1.508       .  S
C1367      H1371   1.111       .  S
C1367      H1372   1.109       .  S
C1367      H1373   1.111       .  S
C1370      H1374   1.108       .  S
C1370      H1375   1.110       .  S
C1370      H1376   1.111       .  S
C1377      C1378   1.404       .  A
C1377      C1382   1.399       .  A
C1377      H1384   1.084       .  S
C1378      C1379   1.417       .  A
C1379      C1380   1.410       .  A
C1379      C1386   1.506       .  S
C1380      C1381   1.403       .  A
C1380      H1385   1.084       .  S
C1381      C1382   1.411       .  A
C1382      C1383   1.510       .  S
C1383      H1387   1.111       .  S
C1383      H1388   1.110       .  S
C1383      H1389   1.110       .  S
C1386      H1390   1.109       .  S
C1386      H1391   1.110       .  S
C1386      H1392   1.111       .  S
C1393      C1394   1.404       .  A
C1393      C1398   1.406       .  A
C1393      H1400   1.084       .  S
C1394      C1395   1.414       .  A
C1395      C1396   1.401       .  A
C1395      C1402   1.509       .  S
C1396      C1397   1.407       .  A
C1396      H1401   1.084       .  S
C1397      C1398   1.417       .  A
C1398      C1399   1.507       .  S
C1399      H1403   1.111       .  S
C1399      H1404   1.110       .  S
C1399      H1405   1.110       .  S
C1402      H1406   1.111       .  S
C1402      H1407   1.110       .  S
C1402      H1408   1.111       .  S
C1409      C1410   1.403       .  A
C1409      C1414   1.404       .  A
C1409      H1416   1.084       .  S
C1410      C1411   1.417       .  A
C1411      C1412   1.404       .  A
C1411      C1418   1.508       .  S
C1412      C1413   1.403       .  A
C1412      H1417   1.084       .  S
C1413      C1414   1.417       .  A
C1414      C1415   1.509       .  S
C1415      H1419   1.111       .  S
C1415      H1420   1.110       .  S
C1415      H1421   1.111       .  S
C1418      H1422   1.110       .  S
C1418      H1423   1.110       .  S
C1418      H1424   1.111       .  S
C1425      C1426   1.403       .  A
C1425      C1430   1.402       .  A
C1425      H1432   1.085       .  S
C1426      C1427   1.413       .  A
C1427      C1428   1.405       .  A
C1427      C1434   1.507       .  S
C1428      C1429   1.406       .  A
C1428      H1433   1.084       .  S
C1429      C1430   1.416       .  A
C1430      C1431   1.508       .  S
C1431      H1435   1.111       .  S
C1431      H1436   1.110       .  S
C1431      H1437   1.109       .  S
C1434      H1438   1.109       .  S
C1434      H1439   1.110       .  S
C1434      H1440   1.111       .  S
In1441     O1443   2.250       .  S
In1441     O1444   2.234       .  S
In1441     O1452   2.230       .  S
In1441     O1446   2.269       .  S
In1441     O1448   2.257       .  S
In1441     O1449   2.247       .  S
In1441     O1450   2.227       .  S
In1441     O1453   2.233       .  S
C1442      O1448   1.264       .  A
C1442      O1450   1.259       .  A
C1442      C2866   1.479       .  S
O1443      C1451   1.261       .  A
O1444      C1451   1.261       .  A
C1445      O1452   1.256       .  A
C1445      O1446   1.261       .  A
C1445      C2821   1.474       .  S
C1447      O1449   1.262       .  A
C1447      O1453   1.260       .  A
C1447      C2834   1.481       .  S
C1451      C2850   1.481       .  S
In1454     O1456   2.237       .  S
In1454     O1457   2.237       .  S
In1454     O1465   2.237       .  S
In1454     O1459   2.251       .  S
In1454     O1461   2.247       .  S
In1454     O1462   2.255       .  S
In1454     O1463   2.226       .  S
In1454     O1466   2.225       .  S
C1455      O1461   1.266       .  A
C1455      O1463   1.259       .  A
C1455      C2802   1.486       .  S
O1456      C1464   1.261       .  A
O1457      C1464   1.263       .  A
C1458      O1465   1.261       .  A
C1458      O1459   1.261       .  A
C1458      C2770   1.487       .  S
C1460      O1462   1.263       .  A
C1460      O1466   1.259       .  A
C1460      C2786   1.480       .  S
C1464      C2853   1.481       .  S
In1467     O1469   2.237       .  S
In1467     O1470   2.249       .  S
In1467     O1478   2.243       .  S
In1467     O1472   2.248       .  S
In1467     O1474   2.257       .  S
In1467     O1475   2.243       .  S
In1467     O1476   2.223       .  S
In1467     O1479   2.237       .  S
C1468      O1474   1.264       .  A
C1468      O1476   1.260       .  A
C1468      C2757   1.486       .  S
O1469      C1477   1.260       .  A
O1470      C1477   1.262       .  A
C1471      O1478   1.259       .  A
C1471      O1472   1.262       .  A
C1471      C2722   1.489       .  S
C1473      O1475   1.262       .  A
C1473      O1479   1.260       .  A
C1473      C2741   1.474       .  S
C1477      C2869   1.483       .  S
In1480     O1482   2.250       .  S
In1480     O1483   2.239       .  S
In1480     O1491   2.220       .  S
In1480     O1485   2.271       .  S
In1480     O1487   2.262       .  S
In1480     O1489   2.214       .  S
In1480     O1492   2.263       .  S
C1481      O1487   1.264       .  A
C1481      O1489   1.260       .  A
C1481      C2789   1.486       .  S
O1482      C1490   1.262       .  A
O1483      C1490   1.259       .  A
C1484      O1491   1.257       .  A
C1484      O1485   1.260       .  A
C1484      C2693   1.476       .  S
C1486      O1488   1.257       .  A
C1486      C2738   1.486       .  S
C1490      C2706   1.481       .  S
In1493     O1495   2.250       .  S
In1493     O1496   2.226       .  S
In1493     O1504   2.217       .  S
In1493     O1498   2.274       .  S
In1493     O1500   2.265       .  S
In1493     O1502   2.218       .  S
In1493     O1505   2.275       .  S
C1494      O1500   1.264       .  A
C1494      O1502   1.258       .  A
C1494      C2677   1.482       .  S
O1495      C1503   1.263       .  A
O1496      C1503   1.258       .  A
C1497      O1504   1.256       .  A
C1497      O1498   1.262       .  A
C1497      C2642   1.479       .  S
C1499      O1501   1.258       .  A
C1499      C2658   1.487       .  S
C1503      C2805   1.480       .  S
In1506     O1508   2.226       .  S
In1506     O1509   2.252       .  S
In1506     O1517   2.255       .  S
In1506     O1511   2.242       .  S
In1506     O1513   2.260       .  S
In1506     O1514   2.237       .  S
In1506     O1515   2.222       .  S
In1506     O1518   2.250       .  S
C1507      O1513   1.263       .  A
C1507      O1515   1.259       .  A
C1507      C2837   1.488       .  S
O1508      C1516   1.261       .  A
O1509      C1516   1.261       .  A
C1510      O1517   1.260       .  A
C1510      O1511   1.257       .  A
C1510      C2613   1.484       .  S
C1512      O1514   1.260       .  A
C1512      O1518   1.261       .  A
C1512      C2661   1.469       .  S
C1516      C2626   1.487       .  S
In1519     O1521   2.244       .  S
In1519     O1522   2.232       .  S
In1519     O1530   2.244       .  S
In1519     O1524   2.253       .  S
In1519     O1526   2.261       .  S
In1519     O1527   2.249       .  S
In1519     O1528   2.226       .  S
In1519     O1531   2.234       .  S
C1520      O1526   1.265       .  A
C1520      O1528   1.257       .  A
C1520      C2709   1.487       .  S
O1521      C1529   1.261       .  A
O1522      C1529   1.262       .  A
C1523      O1530   1.260       .  A
C1523      O1524   1.260       .  A
C1523      C2578   1.488       .  S
C1525      O1527   1.262       .  A
C1525      O1531   1.260       .  A
C1525      C2674   1.486       .  S
C1529      C2594   1.485       .  S
In1532     O1534   2.244       .  S
In1532     O1535   2.233       .  S
In1532     O1543   2.232       .  S
In1532     O1537   2.257       .  S
In1532     O1539   2.260       .  S
In1532     O1540   2.246       .  S
In1532     O1541   2.211       .  S
In1532     O1544   2.235       .  S
C1533      O1539   1.266       .  A
C1533      O1541   1.257       .  A
C1533      C2629   1.487       .  S
O1534      C1542   1.261       .  A
O1535      C1542   1.261       .  A
C1536      O1543   1.260       .  A
C1536      O1537   1.261       .  A
C1536      C2562   1.489       .  S
C1538      O1540   1.262       .  A
C1538      O1544   1.260       .  A
C1538      C2754   1.486       .  S
C1542      C2597   1.479       .  S
In1545     O1547   2.241       .  S
In1545     O1548   2.239       .  S
In1545     O1556   2.248       .  S
In1545     O1550   2.249       .  S
In1545     O1552   2.258       .  S
In1545     O1553   2.253       .  S
In1545     O1554   2.213       .  S
In1545     O1557   2.229       .  S
C1546      O1552   1.266       .  A
C1546      O1554   1.258       .  A
C1546      C2546   1.484       .  S
O1547      C1555   1.261       .  A
O1548      C1555   1.262       .  A
C1549      O1556   1.259       .  A
C1549      O1550   1.260       .  A
C1549      C2498   1.485       .  S
C1551      O1553   1.261       .  A
C1551      O1557   1.260       .  A
C1551      C2514   1.487       .  S
C1555      C2530   1.476       .  S
In1558     O1560   2.251       .  S
In1558     O1561   2.234       .  S
In1558     O1569   2.240       .  S
In1558     O1563   2.249       .  S
In1558     O1565   2.276       .  S
In1558     O1566   2.230       .  S
In1558     O1567   2.217       .  S
In1558     O1570   2.258       .  S
C1559      O1565   1.264       .  A
C1559      O1567   1.254       .  A
C1559      C2482   1.486       .  S
O1560      C1568   1.262       .  A
O1561      C1568   1.259       .  A
C1562      O1569   1.261       .  A
C1562      O1563   1.261       .  A
C1562      C2773   1.489       .  S
C1564      O1566   1.260       .  A
C1564      O1570   1.261       .  A
C1564      C2469   1.470       .  S
C1568      C2533   1.488       .  S
In1571     O1573   2.232       .  S
In1571     O1574   2.252       .  S
In1571     O1582   2.250       .  S
In1571     O1576   2.247       .  S
In1571     O1578   2.261       .  S
In1571     O1580   2.228       .  S
In1571     O1583   2.243       .  S
C1572      O1578   1.263       .  A
C1572      O1580   1.258       .  A
C1572      C2466   1.473       .  S
O1573      C1581   1.260       .  A
O1574      C1581   1.264       .  A
C1575      O1582   1.260       .  A
C1575      O1576   1.259       .  A
C1575      C2421   1.484       .  S
C1577      O1579   1.262   1_556  A
C1577      C2450   1.484       .  S
C1581      C2434   1.489       .  S
In1584     O1586   2.230       .  S
In1584     O1587   2.250       .  S
In1584     O1595   2.238       .  S
In1584     O1589   2.257       .  S
In1584     O1591   2.258       .  S
In1584     O1592   2.234       .  S
In1584     O1593   2.218       .  S
In1584     O1596   2.246       .  S
C1585      O1591   1.266       .  A
C1585      O1593   1.259       .  A
C1585      C2402   1.479       .  S
O1586      C1594   1.260       .  A
O1587      C1594   1.261       .  A
C1588      O1595   1.257       .  A
C1588      O1589   1.261       .  A
C1588      C2725   1.487       .  S
C1590      O1592   1.261       .  A
C1590      O1596   1.261       .  A
C1590      C2453   1.479       .  S
C1594      C2549   1.476       .  S
In1597     O1599   2.249       .  S
In1597     O1600   2.242       .  S
In1597     O1608   2.239       .  S
In1597     O1602   2.246       .  S
In1597     O1604   2.259       .  S
In1597     O1605   2.245       .  S
In1597     O1606   2.225       .  S
In1597     O1609   2.242       .  S
C1598      O1604   1.263       .  A
C1598      O1606   1.257       .  A
C1598      C2517   1.476       .  S
O1599      C1607   1.261       .  A
O1600      C1607   1.260       .  A
C1601      O1608   1.262       .  A
C1601      O1602   1.261       .  A
C1601      C2610   1.490       .  S
C1603      O1605   1.262       .  A
C1603      O1609   1.259       .  A
C1603      C2386   1.483       .  S
C1607      C2370   1.472       .  S
In1610     O1612   2.237       .  S
In1610     O1613   2.255       .  S
In1610     O1621   2.240       .  S
In1610     O1615   2.261       .  S
In1610     O1617   2.257       .  S
In1610     O1619   2.225       .  S
In1610     O1622   2.253       .  S
C1611      O1617   1.265       .  A
C1611      O1619   1.261       .  A
C1611      C2354   1.490       .  S
O1612      C1620   1.259       .  A
O1613      C1620   1.260       .  A
C1614      O1621   1.258       .  A
C1614      O1615   1.260       .  A
C1614      C2338   1.490       .  S
C1616      O1618   1.261   1_556  A
C1616      C2389   1.483       .  S
C1620      C2485   1.474   1_655  S
In1623     O1625   2.254       .  S
In1623     O1626   2.233       .  S
In1623     O1634   2.247       .  S
In1623     O1628   2.254       .  S
In1623     O1630   2.259       .  S
In1623     O1631   2.251       .  S
In1623     O1632   2.226       .  S
In1623     O1635   2.243       .  S
C1624      O1630   1.263       .  A
C1624      O1632   1.260       .  A
C1624      C2437   1.487       .  S
O1625      C1633   1.262       .  A
O1626      C1633   1.259       .  A
C1627      O1634   1.259       .  A
C1627      O1628   1.259       .  A
C1627      C2581   1.490       .  S
C1629      O1631   1.261       .  A
C1629      O1635   1.259       .  A
C1629      C2357   1.487       .  S
C1633      C2322   1.484       .  S
In1636     O1638   2.260       .  S
In1636     O1639   2.238       .  S
In1636     O1647   2.234       .  S
In1636     O1641   2.267       .  S
In1636     O1643   2.251       .  S
In1636     O1644   2.243       .  S
In1636     O1645   2.230       .  S
In1636     O1648   2.240       .  S
C1637      O1643   1.264       .  A
C1637      O1645   1.260       .  A
C1637      C2373   1.468       .  S
O1638      C1646   1.259       .  A
O1639      C1646   1.257       .  A
C1640      O1647   1.257       .  A
C1640      O1641   1.260       .  A
C1640      C2306   1.483       .  S
C1642      O1644   1.261       .  A
C1642      O1648   1.261       .  A
C1642      C2405   1.470   1_655  S
C1646      C2325   1.478       .  S
In1649     O1651   2.233       .  S
In1649     O1652   2.254       .  S
In1649     O1660   2.249       .  S
In1649     O1654   2.247       .  S
In1649     O1656   2.259       .  S
In1649     O1657   2.242       .  S
In1649     O1658   2.223       .  S
In1649     O1661   2.243       .  S
C1650      O1656   1.265       .  A
C1650      O1658   1.259       .  A
C1650      C2290   1.484       .  S
O1651      C1659   1.261       .  A
O1652      C1659   1.262       .  A
C1653      O1660   1.260       .  A
C1653      O1654   1.259       .  A
C1653      C2341   1.488       .  S
C1655      O1657   1.262       .  A
C1655      O1661   1.260       .  A
C1655      C2274   1.479       .  S
C1659      C2258   1.487   1_655  S
In1662     O1664   2.237       .  S
In1662     O1665   2.248       .  S
In1662     O1673   2.241       .  S
In1662     O1667   2.256       .  S
In1662     O1669   2.263       .  S
In1662     O1670   2.232       .  S
In1662     O1671   2.221       .  S
In1662     O1674   2.252       .  S
C1663      O1669   1.265       .  A
C1663      O1671   1.258       .  A
C1663      C2242   1.488       .  S
O1664      C1672   1.259       .  A
O1665      C1672   1.261       .  A
C1666      O1673   1.258       .  A
C1666      O1667   1.261       .  A
C1666      C2210   1.488       .  S
C1668      O1670   1.261       .  A
C1668      O1674   1.262       .  A
C1668      C2277   1.487       .  S
C1672      C2226   1.484       .  S
In1675     O1677   2.253       .  S
In1675     O1686   2.242       .  S
In1675     O1680   2.256       .  S
In1675     O1682   2.258       .  S
In1675     O1683   2.241       .  S
In1675     O1684   2.226       .  S
In1675     O1687   2.244       .  S
C1676      O1682   1.263       .  A
C1676      O1684   1.260       .  A
C1676      C2229   1.489       .  S
O1678      C1685   1.258       .  A
C1679      O1686   1.258       .  A
C1679      O1680   1.260       .  A
C1679      C2309   1.470       .  S
C1681      O1683   1.261       .  A
C1681      O1687   1.260       .  A
C1681      C2178   1.487   1_655  S
C1685      C2194   1.484       .  S
In1688     O1690   2.249       .  S
In1688     O1691   2.234       .  S
In1688     O1699   2.235       .  S
In1688     O1693   2.256       .  S
In1688     O1695   2.248       .  S
In1688     O1696   2.256       .  S
In1688     O1697   2.220       .  S
In1688     O1700   2.238       .  S
C1689      O1695   1.265       .  A
C1689      O1697   1.262       .  A
C1689      C2162   1.485       .  S
O1690      C1698   1.261       .  A
O1691      C1698   1.260       .  A
C1692      O1699   1.257       .  A
C1692      O1693   1.260       .  A
C1692      C2146   1.485       .  S
C1694      O1696   1.261       .  A
C1694      O1700   1.259       .  A
C1694      C2293   1.476       .  S
C1698      C2197   1.478       .  S
In1701     O1703   2.235       .  S
In1701     O1704   2.258       .  S
In1701     O1712   2.244       .  S
In1701     O1706   2.247       .  S
In1701     O1708   2.246       .  S
In1701     O1709   2.228       .  S
In1701     O1710   2.223       .  S
In1701     O1713   2.252       .  S
C1702      O1708   1.264       .  A
C1702      O1710   1.261       .  A
C1702      C2181   1.478       .  S
O1703      C1711   1.257       .  A
O1704      C1711   1.259       .  A
C1705      O1712   1.259       .  A
C1705      O1706   1.258       .  A
C1705      C2101   1.483       .  S
C1707      O1709   1.260       .  A
C1707      O1713   1.263       .  A
C1707      C2130   1.479       .  S
C1711      C2114   1.477       .  S
In1714     O1716   2.232       .  S
In1714     O1717   2.246       .  S
In1714     O1725   2.240       .  S
In1714     O1719   2.256       .  S
In1714     O1721   2.256       .  S
In1714     O1722   2.234       .  S
In1714     O1723   2.223       .  S
In1714     O1726   2.248       .  S
C1715      O1721   1.265       .  A
C1715      O1723   1.260       .  A
C1715      C2082   1.483       .  S
O1716      C1724   1.260       .  A
O1717      C1724   1.262       .  A
C1718      O1725   1.259       .  A
C1718      O1719   1.260       .  A
C1718      C2418   1.491       .  S
C1720      O1722   1.260       .  A
C1720      O1726   1.262       .  A
C1720      C2133   1.480       .  S
C1724      C2165   1.478       .  S
In1727     O1729   2.246       .  S
In1727     O1738   2.239       .  S
In1727     O1732   2.256       .  S
In1727     O1734   2.258       .  S
In1727     O1735   2.252       .  S
In1727     O1736   2.214       .  S
In1727     O1739   2.235       .  S
C1728      O1734   1.266       .  A
C1728      O1736   1.258       .  A
C1728      C2117   1.480       .  S
O1730      C1737   1.261       .  A
C1731      O1738   1.258       .  A
C1731      O1732   1.262       .  A
C1731      C2501   1.491       .  S
C1733      O1735   1.262       .  A
C1733      O1739   1.261       .  A
C1733      C2245   1.487       .  S
C1737      C2066   1.478       .  S
In1740     O1742   2.252       .  S
In1740     O1743   2.228       .  S
In1740     O1751   2.240       .  S
In1740     O1745   2.262       .  S
In1740     O1747   2.266       .  S
In1740     O1748   2.253       .  S
In1740     O1749   2.216       .  S
In1740     O1752   2.237       .  S
C1741      O1747   1.267       .  A
C1741      O1749   1.258       .  A
C1741      C2261   1.489       .  S
O1742      C1750   1.264       .  A
O1743      C1750   1.260       .  A
C1744      O1751   1.257       .  A
C1744      O1745   1.261       .  A
C1744      C2050   1.489       .  S
C1746      O1748   1.260       .  A
C1746      O1752   1.259       .  A
C1746      C2085   1.477       .  S
C1750      C2069   1.486       .  S
In1753     O1755   2.258       .  S
In1753     O1764   2.231       .  S
In1753     O1758   2.269       .  S
In1753     O1760   2.268       .  S
In1753     O1761   2.231       .  S
In1753     O1762   2.219       .  S
In1753     O1765   2.244       .  S
C1754      O1760   1.265       .  A
C1754      O1762   1.257       .  A
C1754      C2037   1.479       .  S
O1755      C1763   1.260       .  A
C1757      O1764   1.258       .  A
C1757      O1758   1.261       .  A
C1757      C2818   1.483       .  S
C1759      O1761   1.260       .  A
C1759      O1765   1.264       .  A
C1759      C2005   1.486       .  S
In1766     O1768   2.239       .  S
In1766     O1769   2.237       .  S
In1766     O1777   2.240       .  S
In1766     O1771   2.260       .  S
In1766     O1773   2.256       .  S
In1766     O1774   2.255       .  S
In1766     O1775   2.225       .  S
In1766     O1778   2.233       .  S
C1767      O1773   1.267       .  A
C1767      O1775   1.259       .  A
C1767      C1986   1.491       .  S
O1768      C1776   1.261       .  A
O1769      C1776   1.262       .  A
C1770      O1777   1.258       .  A
C1770      O1771   1.262       .  A
C1770      C2053   1.491       .  S
C1772      O1774   1.261       .  A
C1772      O1778   1.259       .  A
C1772      C1970   1.477       .  S
C1776      C2021   1.475       .  S
In1779     O1781   2.229       .  S
In1779     O1782   2.256       .  S
In1779     O1790   2.241       .  S
In1779     O1784   2.252       .  S
In1779     O1786   2.252       .  S
In1779     O1787   2.233       .  S
In1779     O1788   2.225       .  S
In1779     O1791   2.240       .  S
C1780      O1786   1.266       .  A
C1780      O1788   1.259       .  A
C1780      C2002   1.487       .  S
O1781      C1789   1.261       .  A
O1782      C1789   1.261       .  A
C1783      O1790   1.259       .  A
C1783      O1784   1.261       .  A
C1783      C2213   1.487       .  S
C1785      O1787   1.262       .  A
C1785      O1791   1.261       .  A
C1785      C1954   1.477       .  S
C1789      C1938   1.487       .  S
In1792     O1794   2.251       .  S
In1792     O1795   2.238       .  S
In1792     O1803   2.227       .  S
In1792     O1797   2.260       .  S
In1792     O1799   2.267       .  S
In1792     O1800   2.230       .  S
In1792     O1801   2.213       .  S
In1792     O1804   2.254       .  S
C1793      O1799   1.263       .  A
C1793      O1801   1.259       .  A
C1793      C1922   1.483       .  S
O1794      C1802   1.263       .  A
O1795      C1802   1.260       .  A
C1796      O1803   1.257       .  A
C1796      O1797   1.260       .  A
C1796      C2645   1.470       .  S
C1798      O1800   1.258       .  A
C1798      O1804   1.260       .  A
C1798      C1957   1.483       .  S
C1802      C1989   1.488       .  S
In1805     O1807   2.267       .  S
In1805     O1808   2.222       .  S
In1805     O1816   2.244       .  S
In1805     O1810   2.244       .  S
In1805     O1812   2.263       .  S
In1805     O1813   2.262       .  S
In1805     O1814   2.232       .  S
In1805     O1817   2.221       .  S
C1806      O1812   1.262       .  A
C1806      O1814   1.256       .  A
C1806      C1906   1.471       .  S
O1807      C1815   1.260       .  A
O1808      C1815   1.259       .  A
C1809      O1816   1.259       .  A
C1809      O1810   1.260       .  A
C1809      C2149   1.488       .  S
C1811      O1813   1.264       .  A
C1811      O1817   1.260       .  A
C1811      C1925   1.481       .  S
C1815      C1890   1.477       .  S
In1818     O1820   2.252       .  S
In1818     O1829   2.257       .  S
In1818     O1823   2.236       .  S
In1818     O1825   2.279       .  S
In1818     O1826   2.234       .  S
In1818     O1827   2.223       .  S
In1818     O1830   2.258       .  S
C1819      O1825   1.263       .  A
C1819      O1827   1.254       .  A
C1819      C1941   1.482       .  S
O1820      C1828   1.263       .  A
C1822      O1829   1.262       .  A
C1822      O1823   1.259       .  A
C1822      C2565   1.482       .  S
C1824      O1826   1.257       .  A
C1824      O1830   1.259       .  A
C1824      C1874   1.468       .  S
In1831     O1833   2.235       .  S
In1831     O1834   2.250       .  S
In1831     O1842   2.238       .  S
In1831     O1836   2.255       .  S
In1831     O1838   2.261       .  S
In1831     O1839   2.229       .  S
In1831     O1840   2.219       .  S
In1831     O1843   2.254       .  S
C1832      O1838   1.263       .  A
C1832      O1840   1.258       .  A
C1832      C1877   1.473       .  S
O1833      C1841   1.261       .  A
O1834      C1841   1.262       .  A
C1835      O1842   1.258       .  A
C1835      O1836   1.258       .  A
C1835      C2098   1.488       .  S
C1837      O1839   1.260       .  A
C1837      O1843   1.260       .  A
C1837      C1861   1.487       .  S
C1841      C2034   1.473       .  S
In1844     O1846   2.261       .  S
In1844     O1847   2.248       .  S
In1844     O1855   2.261       .  S
In1844     O1849   2.240       .  S
In1844     O1851   2.263       .  S
In1844     O1852   2.248       .  S
In1844     O1853   2.229       .  S
In1844     O1856   2.230       .  S
C1845      O1851   1.262       .  A
C1845      O1853   1.259       .  A
C1845      C1973   1.488       .  S
O1846      C1854   1.261       .  A
O1847      C1854   1.261       .  A
C1848      O1855   1.260       .  A
C1848      O1849   1.259       .  A
C1848      C2690   1.473       .  S
C1850      O1852   1.262       .  A
C1850      O1856   1.259       .  A
C1850      C1858   1.474       .  S
C1854      C1909   1.482       .  S
C1857      C1858   1.401       .  A
C1857      C1862   1.408       .  A
C1857      H1864   1.084       .  S
C1858      C1859   1.414       .  A
C1859      C1860   1.399       .  A
C1859      C1866   1.511       .  S
C1860      C1861   1.405       .  A
C1860      H1865   1.083       .  S
C1861      C1862   1.420       .  A
C1862      C1863   1.507       .  S
C1863      H1867   1.111       .  S
C1863      H1868   1.109       .  S
C1863      H1869   1.111       .  S
C1866      H1870   1.111       .  S
C1866      H1871   1.110       .  S
C1866      H1872   1.111       .  S
C1873      C1874   1.402       .  A
C1873      C1878   1.407       .  A
C1873      H1880   1.084       .  S
C1874      C1875   1.411       .  A
C1875      C1876   1.398       .  A
C1875      C1882   1.508       .  S
C1876      C1877   1.402       .  A
C1876      H1881   1.084       .  S
C1877      C1878   1.414       .  A
C1878      C1879   1.505       .  S
C1879      H1883   1.111       .  S
C1879      H1884   1.110       .  S
C1879      H1885   1.110       .  S
C1882      H1886   1.110       .  S
C1882      H1887   1.110       .  S
C1882      H1888   1.111       .  S
C1889      C1890   1.399       .  A
C1889      C1894   1.394       .  A
C1889      H1896   1.084       .  S
C1890      C1891   1.416       .  A
C1891      C1892   1.412       .  A
C1891      C1898   1.505       .  S
C1892      C1893   1.404       .  A
C1892      H1897   1.084       .  S
C1893      C1894   1.413       .  A
C1894      C1895   1.510       .  S
C1895      H1899   1.111       .  S
C1895      H1900   1.108       .  S
C1895      H1901   1.109       .  S
C1898      H1902   1.110       .  S
C1898      H1903   1.110       .  S
C1898      H1904   1.111       .  S
C1905      C1906   1.398       .  A
C1905      C1910   1.403       .  A
C1905      H1912   1.085       .  S
C1906      C1907   1.411       .  A
C1907      C1908   1.402       .  A
C1907      C1914   1.504       .  S
C1908      C1909   1.403       .  A
C1908      H1913   1.084       .  S
C1909      C1910   1.416       .  A
C1910      C1911   1.499       .  S
C1911      H1915   1.111       .  S
C1911      H1916   1.108       .  S
C1911      H1917   1.107       .  S
C1914      H1918   1.110       .  S
C1914      H1919   1.104       .  S
C1914      H1920   1.111       .  S
C1921      C1922   1.401       .  A
C1921      C1926   1.395       .  A
C1921      H1928   1.084       .  S
C1922      C1923   1.417       .  A
C1923      C1924   1.411       .  A
C1923      C1930   1.506       .  S
C1924      C1925   1.405       .  A
C1924      H1929   1.084       .  S
C1925      C1926   1.414       .  A
C1926      C1927   1.506       .  S
C1927      H1931   1.111       .  S
C1927      H1932   1.110       .  S
C1927      H1933   1.109       .  S
C1930      H1934   1.110       .  S
C1930      H1935   1.111       .  S
C1930      H1936   1.111       .  S
C1937      C1938   1.403       .  A
C1937      C1942   1.398       .  A
C1937      H1944   1.084       .  S
C1938      C1939   1.419       .  A
C1939      C1940   1.409       .  A
C1939      C1946   1.507       .  S
C1940      C1941   1.404       .  A
C1940      H1945   1.084       .  S
C1941      C1942   1.417       .  A
C1942      C1943   1.509       .  S
C1943      H1948   1.108       .  S
C1946      H1950   1.110       .  S
C1946      H1951   1.110       .  S
C1946      H1952   1.111       .  S
C1953      C1954   1.402       .  A
C1953      C1958   1.404       .  A
C1953      H1960   1.084       .  S
C1954      C1955   1.415       .  A
C1955      C1956   1.402       .  A
C1955      C1962   1.509       .  S
C1956      C1957   1.405       .  A
C1956      H1961   1.084       .  S
C1957      C1958   1.417       .  A
C1958      C1959   1.507       .  S
C1959      H1963   1.111       .  S
C1959      H1964   1.110       .  S
C1959      H1965   1.110       .  S
C1962      H1966   1.110       .  S
C1962      H1967   1.110       .  S
C1962      H1968   1.111       .  S
C1969      C1970   1.402       .  A
C1969      C1974   1.408       .  A
C1969      H1976   1.084       .  S
C1970      C1971   1.413       .  A
C1971      C1972   1.400       .  A
C1971      C1978   1.509       .  S
C1972      C1973   1.406       .  A
C1972      H1977   1.083       .  S
C1973      C1974   1.419       .  A
C1974      C1975   1.507       .  S
C1975      H1979   1.111       .  S
C1975      H1980   1.110       .  S
C1975      H1981   1.111       .  S
C1978      H1982   1.109       .  S
C1978      H1983   1.109       .  S
C1978      H1984   1.111       .  S
C1985      C1986   1.405       .  A
C1985      C1990   1.406       .  A
C1985      H1992   1.084       .  S
C1986      C1987   1.421       .  A
C1987      C1988   1.404       .  A
C1987      C1994   1.509       .  S
C1988      C1989   1.403       .  A
C1988      H1993   1.084       .  S
C1989      C1990   1.418       .  A
C1990      C1991   1.508       .  S
C1991      H1995   1.111       .  S
C1991      H1996   1.110       .  S
C1991      H1997   1.111       .  S
C1994      H1998   1.109       .  S
C1994      H1999   1.110       .  S
C1994      H2000   1.111       .  S
C2001      C2002   1.404       .  A
C2001      C2006   1.404       .  A
C2001      H2008   1.084       .  S
C2002      C2003   1.420       .  A
C2003      C2004   1.403       .  A
C2003      C2010   1.509       .  S
C2004      C2005   1.403       .  A
C2004      H2009   1.084       .  S
C2005      C2006   1.418       .  A
C2006      C2007   1.508       .  S
C2007      H2012   1.110       .  S
C2010      H2014   1.110       .  S
C2010      H2015   1.110       .  S
C2010      H2016   1.111       .  S
C2017      C2018   1.406       .  A
C2017      C2022   1.401       .  A
C2017      H2024   1.084       .  S
C2018      C2019   1.419       .  A
C2019      C2020   1.406       .  A
C2019      C2026   1.507       .  S
C2020      C2021   1.401       .  A
C2020      H2025   1.084       .  S
C2021      C2022   1.413       .  A
C2022      C2023   1.509       .  S
C2023      H2027   1.111       .  S
C2023      H2028   1.110       .  S
C2023      H2029   1.110       .  S
C2026      H2030   1.111       .  S
C2026      H2032   1.111       .  S
C2033      C2034   1.400       .  A
C2033      C2038   1.401       .  A
C2033      H2040   1.084       .  S
C2034      C2035   1.411       .  A
C2035      C2036   1.407       .  A
C2035      C2042   1.506       .  S
C2036      C2037   1.405       .  A
C2036      H2041   1.083       .  S
C2037      C2038   1.417       .  A
C2038      C2039   1.510       .  S
C2039      H2043   1.111       .  S
C2039      H2044   1.111       .  S
C2039      H2045   1.109       .  S
C2042      H2046   1.110       .  S
C2042      H2047   1.111       .  S
C2042      H2048   1.110       .  S
C2049      C2050   1.404       .  A
C2049      C2054   1.406       .  A
C2049      H2056   1.084       .  S
C2050      C2051   1.418       .  A
C2051      C2052   1.405       .  A
C2051      C2058   1.508       .  S
C2052      C2053   1.405       .  A
C2052      H2057   1.083       .  S
C2053      C2054   1.419       .  A
C2054      C2055   1.508       .  S
C2055      H2059   1.111       .  S
C2055      H2060   1.111       .  S
C2055      H2061   1.110       .  S
C2058      H2062   1.111       .  S
C2058      H2063   1.109       .  S
C2058      H2064   1.111       .  S
C2065      C2066   1.402       .  A
C2065      C2070   1.403       .  A
C2065      H2072   1.085       .  S
C2066      C2067   1.412       .  A
C2067      C2068   1.405       .  A
C2067      C2074   1.507       .  S
C2068      C2069   1.407       .  A
C2068      H2073   1.084       .  S
C2069      C2070   1.419       .  A
C2070      C2071   1.509       .  S
C2071      H2075   1.111       .  S
C2071      H2076   1.109       .  S
C2071      H2077   1.110       .  S
C2074      H2078   1.108       .  S
C2074      H2079   1.111       .  S
C2074      H2080   1.111       .  S
C2081      C2082   1.405       .  A
C2081      C2086   1.400       .  A
C2081      H2088   1.084       .  S
C2082      C2083   1.416       .  A
C2083      C2084   1.407       .  A
C2083      C2090   1.506       .  S
C2084      C2085   1.403       .  A
C2084      H2089   1.084       .  S
C2085      C2086   1.414       .  A
C2086      C2087   1.509       .  S
C2087      H2091   1.111       .  S
C2087      H2092   1.110       .  S
C2087      H2093   1.109       .  S
C2090      H2094   1.110       .  S
C2090      H2095   1.111       .  S
C2090      H2096   1.111       .  S
C2097      C2098   1.406       .  A
C2097      C2102   1.402       .  A
C2097      H2104   1.084       .  S
C2099      C2100   1.404       .  A
C2099      C2106   1.508       .  S
C2100      C2101   1.404       .  A
C2100      H2105   1.085       .  S
C2102      C2103   1.509       .  S
C2103      H2107   1.111       .  S
C2103      H2108   1.110       .  S
C2103      H2109   1.110       .  S
C2106      H2110   1.110       .  S
C2106      H2111   1.110       .  S
C2106      H2112   1.111       .  S
C2113      C2114   1.402       .  A
C2113      C2118   1.400       .  A
C2113      H2120   1.084       .  S
C2114      C2115   1.414       .  A
C2115      C2116   1.406       .  A
C2115      C2122   1.507       .  S
C2116      C2117   1.405       .  A
C2116      H2121   1.084       .  S
C2117      C2118   1.417       .  A
C2118      C2119   1.510       .  S
C2119      H2123   1.111       .  S
C2119      H2124   1.111       .  S
C2119      H2125   1.109       .  S
C2122      H2126   1.110       .  S
C2122      H2127   1.111       .  S
C2122      H2128   1.111       .  S
C2129      C2130   1.404       .  A
C2129      C2134   1.404       .  A
C2129      H2136   1.084       .  S
C2130      C2131   1.414       .  A
C2131      C2132   1.403       .  A
C2131      C2138   1.508       .  S
C2132      C2133   1.404       .  A
C2132      H2137   1.085       .  S
C2133      C2134   1.415       .  A
C2134      C2135   1.508       .  S
C2135      H2139   1.111       .  S
C2135      H2140   1.110       .  S
C2135      H2141   1.109       .  S
C2138      H2142   1.110       .  S
C2138      H2143   1.109       .  S
C2138      H2144   1.111       .  S
C2145      C2146   1.405       .  A
C2145      C2150   1.405       .  A
C2145      H2152   1.084       .  S
C2146      C2147   1.417       .  A
C2147      C2148   1.403       .  A
C2147      C2154   1.509       .  S
C2148      C2149   1.405       .  A
C2148      H2153   1.083       .  S
C2149      C2150   1.418       .  A
C2150      C2151   1.508       .  S
C2151      H2155   1.111       .  S
C2151      H2156   1.111       .  S
C2151      H2157   1.110       .  S
C2154      H2158   1.111       .  S
C2154      H2159   1.109       .  S
C2154      H2160   1.111       .  S
C2161      C2162   1.406   1_455  A
C2161      C2166   1.400       .  A
C2161      H2168   1.084   1_455  S
C2162      C2163   1.417       .  A
C2163      C2164   1.406   1_655  A
C2163      C2170   1.507       .  S
C2164      C2165   1.403       .  A
C2164      H2169   1.084       .  S
C2165      C2166   1.414       .  A
C2166      C2167   1.509       .  S
C2167      H2171   1.111       .  S
C2167      H2172   1.109       .  S
C2167      H2173   1.111       .  S
C2170      H2174   1.111       .  S
C2170      H2175   1.110       .  S
C2170      H2176   1.111       .  S
C2177      C2178   1.407       .  A
C2177      C2182   1.404       .  A
C2177      H2184   1.084       .  S
C2178      C2179   1.419       .  A
C2179      C2180   1.402       .  A
C2179      C2186   1.507       .  S
C2180      C2181   1.402       .  A
C2180      H2185   1.085       .  S
C2181      C2182   1.413       .  A
C2182      C2183   1.508       .  S
C2183      H2188   1.111       .  S
C2186      H2190   1.109       .  S
C2186      H2191   1.107       .  S
C2186      H2192   1.111       .  S
C2193      C2194   1.406       .  A
C2193      C2198   1.404       .  A
C2193      H2200   1.084       .  S
C2194      C2195   1.418       .  A
C2195      C2196   1.404       .  A
C2195      C2202   1.508       .  S
C2196      C2197   1.403       .  A
C2196      H2201   1.085       .  S
C2197      C2198   1.413       .  A
C2198      C2199   1.508       .  S
C2199      H2203   1.111       .  S
C2199      H2204   1.108       .  S
C2199      H2205   1.111       .  S
C2202      H2206   1.109       .  S
C2202      H2207   1.110       .  S
C2202      H2208   1.111       .  S
C2209      C2214   1.405       .  A
C2209      H2216   1.084       .  S
C2210      C2211   1.418       .  A
C2211      C2212   1.405       .  A
C2211      C2218   1.508       .  S
C2212      H2217   1.084       .  S
C2213      C2214   1.417       .  A
C2214      C2215   1.508       .  S
C2215      H2219   1.111       .  S
C2215      H2220   1.109       .  S
C2215      H2221   1.110       .  S
C2218      H2222   1.109       .  S
C2218      H2223   1.110       .  S
C2218      H2224   1.111       .  S
C2225      C2226   1.405       .  A
C2225      C2230   1.406       .  A
C2225      H2232   1.084       .  S
C2226      C2227   1.416       .  A
C2227      C2228   1.401       .  A
C2227      C2234   1.509       .  S
C2228      C2229   1.406       .  A
C2228      H2233   1.084       .  S
C2229      C2230   1.417       .  A
C2230      C2231   1.507       .  S
C2231      H2235   1.111       .  S
C2231      H2236   1.110       .  S
C2231      H2237   1.110       .  S
C2234      H2238   1.110       .  S
C2234      H2239   1.111       .  S
C2234      H2240   1.111       .  S
C2241      C2242   1.406       .  A
C2241      C2246   1.407   1_655  A
C2241      H2248   1.084       .  S
C2242      C2243   1.419   1_655  A
C2243      C2244   1.401       .  A
C2243      C2250   1.510   1_455  S
C2244      C2245   1.403       .  A
C2244      H2249   1.084       .  S
C2245      C2246   1.417       .  A
C2246      C2247   1.507       .  S
C2247      H2251   1.111   1_556  S
C2247      H2252   1.110       .  S
C2247      H2253   1.110   1_556  S
C2250      H2254   1.110       .  S
C2250      H2255   1.110       .  S
C2250      H2256   1.111   1_655  S
C2257      C2258   1.403       .  A
C2257      C2262   1.401       .  A
C2257      H2264   1.084       .  S
C2258      C2259   1.417       .  A
C2259      C2260   1.408       .  A
C2259      C2266   1.507       .  S
C2260      C2261   1.406       .  A
C2260      H2265   1.084       .  S
C2261      C2262   1.420       .  A
C2262      C2263   1.510       .  S
C2263      H2267   1.111       .  S
C2263      H2268   1.109       .  S
C2263      H2269   1.110       .  S
C2266      H2270   1.110       .  S
C2266      H2271   1.110       .  S
C2266      H2272   1.111       .  S
C2273      C2274   1.402       .  A
C2273      C2278   1.406       .  A
C2273      H2280   1.084       .  S
C2274      C2275   1.415       .  A
C2275      C2276   1.403       .  A
C2275      C2282   1.509       .  S
C2276      C2277   1.405       .  A
C2276      H2281   1.084       .  S
C2277      C2278   1.418       .  A
C2278      C2279   1.507       .  S
C2279      H2283   1.111       .  S
C2279      H2284   1.110       .  S
C2279      H2285   1.110       .  S
C2282      H2286   1.111       .  S
C2282      H2287   1.110       .  S
C2282      H2288   1.111       .  S
C2289      C2290   1.406       .  A
C2289      C2294   1.407       .  A
C2289      H2296   1.083       .  S
C2290      C2291   1.418       .  A
C2291      C2292   1.401       .  A
C2291      C2298   1.510       .  S
C2292      C2293   1.401       .  A
C2292      H2297   1.084       .  S
C2293      C2294   1.412       .  A
C2294      C2295   1.506       .  S
C2295      H2299   1.111       .  S
C2295      H2300   1.111       .  S
C2295      H2301   1.109       .  S
C2298      H2302   1.109       .  S
C2298      H2303   1.111       .  S
C2298      H2304   1.111       .  S
C2305      C2306   1.404       .  A
C2305      C2310   1.398   1_565  A
C2305      H2312   1.084       .  S
C2306      C2307   1.418       .  A
C2307      C2308   1.410   1_565  A
C2307      C2314   1.506       .  S
C2308      C2309   1.401       .  A
C2308      H2313   1.084       .  S
C2309      C2310   1.408       .  A
C2310      C2311   1.506       .  S
C2311      H2315   1.111       .  S
C2311      H2316   1.111       .  S
C2311      H2317   1.110       .  S
C2314      H2318   1.109       .  S
C2314      H2319   1.111       .  S
C2314      H2320   1.111       .  S
C2321      C2322   1.406       .  A
C2321      C2326   1.404       .  A
C2321      H2328   1.084       .  S
C2322      C2323   1.417       .  A
C2323      C2324   1.404       .  A
C2323      C2330   1.508       .  S
C2324      C2325   1.403       .  A
C2324      H2329   1.084       .  S
C2325      C2326   1.413       .  A
C2326      C2327   1.508       .  S
C2327      H2331   1.111       .  S
C2327      H2332   1.108       .  S
C2327      H2333   1.111       .  S
C2330      H2334   1.109       .  S
C2330      H2335   1.110       .  S
C2330      H2336   1.111       .  S
C2337      C2338   1.405       .  A
C2337      C2342   1.404       .  A
C2337      H2344   1.085       .  S
C2338      C2339   1.418       .  A
C2339      C2340   1.406       .  A
C2339      C2346   1.508       .  S
C2340      C2341   1.406       .  A
C2340      H2345   1.085       .  S
C2341      C2342   1.418       .  A
C2342      C2343   1.509       .  S
C2343      H2347   1.111       .  S
C2343      H2348   1.110       .  S
C2343      H2349   1.110       .  S
C2346      H2350   1.110       .  S
C2346      H2351   1.110       .  S
C2346      H2352   1.111       .  S
C2353      C2354   1.407       .  A
C2353      C2358   1.402       .  A
C2353      H2360   1.084       .  S
C2354      C2355   1.417       .  A
C2355      C2356   1.407       .  A
C2355      C2362   1.507       .  S
C2356      C2357   1.406       .  A
C2356      H2361   1.084       .  S
C2357      C2358   1.416       .  A
C2358      C2359   1.509       .  S
C2359      H2363   1.111       .  S
C2359      H2364   1.111       .  S
C2359      H2365   1.110       .  S
C2362      H2366   1.110       .  S
C2362      H2367   1.110       .  S
C2362      H2368   1.111       .  S
C2369      C2370   1.403       .  A
C2369      C2374   1.405       .  A
C2369      H2376   1.084       .  S
C2370      C2371   1.414       .  A
C2371      C2372   1.403       .  A
C2371      C2378   1.508       .  S
C2372      C2373   1.400       .  A
C2372      H2377   1.084       .  S
C2373      C2374   1.410       .  A
C2374      C2375   1.506       .  S
C2375      H2379   1.111       .  S
C2375      H2380   1.110       .  S
C2375      H2381   1.110       .  S
C2378      H2382   1.111       .  S
C2378      H2383   1.110       .  S
C2378      H2384   1.111       .  S
C2385      C2386   1.404       .  A
C2385      C2390   1.405       .  A
C2385      H2392   1.084       .  S
C2386      C2387   1.417       .  A
C2387      C2388   1.403       .  A
C2387      C2394   1.509       .  S
C2388      C2389   1.403       .  A
C2388      H2393   1.084       .  S
C2389      C2390   1.416       .  A
C2390      C2391   1.507       .  S
C2391      H2395   1.111       .  S
C2391      H2397   1.110       .  S
C2394      H2398   1.109       .  S
C2394      H2399   1.110       .  S
C2394      H2400   1.111       .  S
C2401      C2402   1.405       .  A
C2401      C2406   1.405       .  A
C2401      H2408   1.084       .  S
C2402      C2403   1.418       .  A
C2403      C2404   1.401       .  A
C2403      C2410   1.509       .  S
C2404      C2405   1.399       .  A
C2404      H2409   1.085       .  S
C2405      C2406   1.411       .  A
C2406      C2407   1.506       .  S
C2407      H2411   1.111       .  S
C2407      H2412   1.111       .  S
C2407      H2413   1.110       .  S
C2410      H2414   1.109       .  S
C2410      H2415   1.110       .  S
C2410      H2416   1.111       .  S
C2417      C2418   1.406   1_565  A
C2417      C2422   1.403       .  A
C2417      H2424   1.084       .  S
C2418      C2419   1.419       .  A
C2419      C2420   1.406       .  A
C2419      C2426   1.508       .  S
C2420      C2421   1.404   1_545  A
C2420      H2425   1.085       .  S
C2421      C2422   1.416       .  A
C2422      C2423   1.509       .  S
C2423      H2427   1.111       .  S
C2423      H2428   1.110       .  S
C2423      H2429   1.111       .  S
C2426      H2430   1.110       .  S
C2426      H2431   1.110       .  S
C2426      H2432   1.111       .  S
C2433      C2434   1.407       .  A
C2433      C2438   1.407   1_455  A
C2433      H2440   1.084       .  S
C2434      C2435   1.419       .  A
C2435      C2436   1.401   1_455  A
C2435      C2442   1.508       .  S
C2436      C2437   1.404       .  A
C2436      H2441   1.084       .  S
C2437      C2438   1.416       .  A
C2438      C2439   1.507       .  S
C2439      H2443   1.111       .  S
C2439      H2444   1.110       .  S
C2439      H2445   1.110       .  S
C2442      H2446   1.110       .  S
C2442      H2447   1.107       .  S
C2442      H2448   1.111       .  S
C2449      C2450   1.405       .  A
C2449      C2454   1.404       .  A
C2449      H2456   1.084       .  S
C2450      C2451   1.418       .  A
C2451      C2452   1.404       .  A
C2451      C2458   1.508       .  S
C2452      C2453   1.402       .  A
C2452      H2457   1.084       .  S
C2453      C2454   1.415       .  A
C2454      C2455   1.508       .  S
C2455      H2459   1.111       .  S
C2455      H2460   1.111       .  S
C2455      H2461   1.110       .  S
C2458      H2464   1.111       .  S
C2465      C2466   1.404       .  A
C2465      C2470   1.407       .  A
C2465      H2472   1.084       .  S
C2466      C2467   1.413       .  A
C2467      C2468   1.399       .  A
C2467      C2474   1.507       .  S
C2468      C2469   1.400       .  A
C2468      H2473   1.085       .  S
C2469      C2470   1.411       .  A
C2470      C2471   1.506       .  S
C2471      H2475   1.111       .  S
C2471      H2476   1.110       .  S
C2471      H2477   1.110       .  S
C2474      H2478   1.110       .  S
C2474      H2479   1.110       .  S
C2474      H2480   1.111       .  S
C2481      C2482   1.407       .  A
C2481      C2486   1.407       .  A
C2481      H2488   1.083       .  S
C2482      C2483   1.421       .  A
C2483      C2484   1.400       .  A
C2483      C2490   1.510       .  S
C2484      C2485   1.399       .  A
C2484      H2489   1.084       .  S
C2485      C2486   1.411       .  A
C2486      C2487   1.506       .  S
C2487      H2491   1.111       .  S
C2487      H2492   1.110       .  S
C2487      H2493   1.111       .  S
C2490      H2494   1.111       .  S
C2490      H2495   1.110       .  S
C2490      H2496   1.111       .  S
C2497      C2498   1.404       .  A
C2497      C2502   1.404       .  A
C2497      H2504   1.084       .  S
C2498      C2499   1.415       .  A
C2499      C2500   1.406       .  A
C2499      C2506   1.508       .  S
C2500      C2501   1.407       .  A
C2500      H2505   1.083       .  S
C2501      C2502   1.420       .  A
C2502      C2503   1.509       .  S
C2503      H2507   1.111       .  S
C2503      H2508   1.110       .  S
C2503      H2509   1.110       .  S
C2506      H2510   1.111       .  S
C2506      H2511   1.109       .  S
C2506      H2512   1.111       .  S
C2513      C2514   1.405       .  A
C2513      C2518   1.398       .  A
C2513      H2520   1.085       .  S
C2514      C2515   1.419       .  A
C2515      C2516   1.407   1_455  A
C2515      C2522   1.507       .  S
C2516      C2517   1.402       .  A
C2516      H2521   1.084       .  S
C2517      C2518   1.417   1_655  A
C2518      C2519   1.511   1_455  S
C2519      H2523   1.110   1_655  S
C2519      H2524   1.111   1_655  S
C2519      H2525   1.104       .  S
C2522      H2526   1.110       .  S
C2522      H2527   1.110       .  S
C2522      H2528   1.111       .  S
C2529      C2530   1.401       .  A
C2529      C2534   1.402       .  A
C2529      H2536   1.085       .  S
C2530      C2531   1.410       .  A
C2531      C2532   1.405       .  A
C2531      C2538   1.507       .  S
C2532      C2533   1.408       .  A
C2532      H2537   1.084       .  S
C2533      C2534   1.420       .  A
C2534      C2535   1.509       .  S
C2535      H2539   1.111       .  S
C2535      H2540   1.110       .  S
C2535      H2541   1.110       .  S
C2538      H2542   1.109       .  S
C2538      H2543   1.111       .  S
C2538      H2544   1.111       .  S
C2545      C2546   1.407       .  A
C2545      C2550   1.406       .  A
C2545      H2552   1.083       .  S
C2546      C2547   1.420       .  A
C2547      C2548   1.399       .  A
C2547      C2554   1.510       .  S
C2548      C2549   1.400       .  A
C2548      H2553   1.083       .  S
C2549      C2550   1.412       .  A
C2550      C2551   1.506       .  S
C2551      H2555   1.111       .  S
C2551      H2556   1.109       .  S
C2551      H2557   1.111       .  S
C2554      H2558   1.111       .  S
C2554      H2559   1.110       .  S
C2554      H2560   1.111       .  S
C2561      C2562   1.405   1_545  A
C2561      C2566   1.401       .  A
C2561      H2568   1.084       .  S
C2562      C2563   1.419       .  A
C2563      C2564   1.408   1_565  A
C2563      C2570   1.507       .  S
C2564      C2565   1.403       .  A
C2564      H2569   1.084       .  S
C2565      C2566   1.415       .  A
C2566      C2567   1.509       .  S
C2567      H2571   1.111       .  S
C2567      H2572   1.111       .  S
C2567      H2573   1.109       .  S
C2570      H2574   1.109       .  S
C2570      H2575   1.110       .  S
C2570      H2576   1.111       .  S
C2577      C2578   1.405       .  A
C2577      C2582   1.405       .  A
C2577      H2584   1.085       .  S
C2579      C2580   1.405       .  A
C2579      C2586   1.508       .  S
C2580      C2581   1.406       .  A
C2580      H2585   1.085       .  S
C2582      C2583   1.508       .  S
C2583      H2587   1.111       .  S
C2583      H2588   1.110       .  S
C2583      H2589   1.110       .  S
C2586      H2590   1.110       .  S
C2586      H2591   1.110       .  S
C2586      H2592   1.111       .  S
C2593      C2594   1.405       .  A
C2593      C2598   1.403       .  A
C2593      H2600   1.084       .  S
C2594      C2595   1.418       .  A
C2595      C2596   1.404       .  A
C2595      C2602   1.508       .  S
C2596      C2597   1.402       .  A
C2596      H2601   1.084       .  S
C2597      C2598   1.415       .  A
C2598      C2599   1.509       .  S
C2599      H2603   1.111       .  S
C2599      H2604   1.110       .  S
C2599      H2605   1.111       .  S
C2602      H2606   1.110       .  S
C2602      H2607   1.110       .  S
C2602      H2608   1.111       .  S
C2609      C2610   1.405       .  A
C2609      C2614   1.403       .  A
C2609      H2616   1.084       .  S
C2610      C2611   1.420       .  A
C2611      C2612   1.406       .  A
C2611      C2618   1.508       .  S
C2612      C2613   1.403       .  A
C2612      H2617   1.085       .  S
C2613      C2614   1.417       .  A
C2614      C2615   1.509       .  S
C2615      H2619   1.111       .  S
C2615      H2620   1.110       .  S
C2615      H2621   1.111       .  S
C2618      H2622   1.110       .  S
C2618      H2623   1.110       .  S
C2618      H2624   1.111       .  S
C2625      C2626   1.404       .  A
C2625      C2630   1.400       .  A
C2625      H2632   1.084       .  S
C2626      C2627   1.418       .  A
C2627      C2628   1.407       .  A
C2627      C2634   1.507       .  S
C2628      C2629   1.405       .  A
C2628      H2633   1.084       .  S
C2629      C2630   1.420       .  A
C2630      C2631   1.510       .  S
C2631      H2635   1.111       .  S
C2631      H2636   1.110       .  S
C2631      H2637   1.110       .  S
C2634      H2638   1.110       .  S
C2634      H2639   1.110       .  S
C2634      H2640   1.111       .  S
C2641      C2642   1.404       .  A
C2641      C2646   1.397       .  A
C2641      H2648   1.084       .  S
C2642      C2643   1.415       .  A
C2643      C2644   1.410       .  A
C2643      C2650   1.505       .  S
C2644      C2645   1.403       .  A
C2644      H2649   1.084       .  S
C2645      C2646   1.410       .  A
C2646      C2647   1.510       .  S
C2647      H2651   1.111       .  S
C2647      H2652   1.111       .  S
C2647      H2653   1.110       .  S
C2650      H2654   1.111       .  S
C2650      H2655   1.110       .  S
C2650      H2656   1.111       .  S
C2657      C2658   1.406       .  A
C2657      C2662   1.395       .  A
C2657      H2664   1.084       .  S
C2658      C2659   1.419       .  A
C2659      C2660   1.413       .  A
C2659      C2666   1.505       .  S
C2660      C2661   1.402       .  A
C2660      H2665   1.083       .  S
C2661      C2662   1.408       .  A
C2662      C2663   1.510       .  S
C2663      H2667   1.111       .  S
C2663      H2668   1.110       .  S
C2663      H2669   1.110       .  S
C2666      H2670   1.109       .  S
C2666      H2671   1.111       .  S
C2666      H2672   1.111       .  S
C2673      C2674   1.408       .  A
C2673      C2678   1.406       .  A
C2673      H2680   1.084       .  S
C2674      C2675   1.417       .  A
C2675      C2676   1.401       .  A
C2676      C2677   1.404       .  A
C2676      H2681   1.085       .  S
C2677      C2678   1.413       .  A
C2678      C2679   1.507       .  S
C2679      H2683   1.111       .  S
C2679      H2684   1.111       .  S
C2679      H2685   1.110       .  S
C2682      H2686   1.110       .  S
C2682      H2687   1.110       .  S
C2682      H2688   1.111       .  S
C2689      C2690   1.404       .  A
C2689      C2694   1.413   1_545  A
C2689      H2696   1.084       .  S
C2690      C2691   1.408       .  A
C2691      C2692   1.393   1_545  A
C2691      C2698   1.500       .  S
C2692      C2693   1.399       .  A
C2692      H2697   1.085       .  S
C2693      C2694   1.416       .  A
C2694      C2695   1.505       .  S
C2695      H2699   1.111       .  S
C2695      H2700   1.111       .  S
C2695      H2701   1.109       .  S
C2698      H2702   1.109       .  S
C2698      H2703   1.109       .  S
C2698      H2704   1.111       .  S
C2705      C2706   1.401       .  A
C2705      C2710   1.403       .  A
C2705      H2712   1.084       .  S
C2706      C2707   1.415       .  A
C2707      C2708   1.405       .  A
C2707      C2714   1.508       .  S
C2708      C2709   1.405       .  A
C2708      H2713   1.084       .  S
C2709      C2710   1.420       .  A
C2710      C2711   1.509       .  S
C2711      H2715   1.111       .  S
C2711      H2716   1.111       .  S
C2711      H2717   1.110       .  S
C2714      H2718   1.109       .  S
C2714      H2719   1.111       .  S
C2714      H2720   1.111       .  S
C2721      C2722   1.405       .  A
C2721      C2726   1.404       .  A
C2721      H2728   1.083       .  S
C2722      C2723   1.419       .  A
C2723      C2724   1.405       .  A
C2723      C2730   1.508       .  S
C2724      C2725   1.405       .  A
C2724      H2729   1.084       .  S
C2725      C2726   1.417       .  A
C2726      C2727   1.509       .  S
C2727      H2731   1.111       .  S
C2727      H2732   1.110       .  S
C2727      H2733   1.110       .  S
C2730      H2734   1.110       .  S
C2730      H2735   1.110       .  S
C2730      H2736   1.111       .  S
C2737      C2738   1.406       .  A
C2737      C2742   1.400       .  A
C2737      H2744   1.084       .  S
C2738      C2739   1.419       .  A
C2739      C2740   1.407       .  A
C2739      C2746   1.507       .  S
C2740      C2741   1.401       .  A
C2740      H2745   1.084       .  S
C2741      C2742   1.413       .  A
C2742      C2743   1.510       .  S
C2743      H2747   1.111       .  S
C2743      H2748   1.110       .  S
C2743      H2749   1.110       .  S
C2746      H2750   1.110       .  S
C2746      H2751   1.111       .  S
C2746      H2752   1.111       .  S
C2753      C2754   1.407       .  A
C2753      C2758   1.406       .  A
C2753      H2760   1.084       .  S
C2754      C2755   1.417       .  A
C2755      C2756   1.401       .  A
C2755      C2762   1.509       .  S
C2756      C2757   1.405       .  A
C2756      H2761   1.084       .  S
C2757      C2758   1.416       .  A
C2758      C2759   1.507       .  S
C2759      H2763   1.111       .  S
C2759      H2764   1.110       .  S
C2759      H2765   1.110       .  S
C2762      H2766   1.110       .  S
C2762      H2767   1.110       .  S
C2762      H2768   1.111       .  S
C2769      C2770   1.405       .  A
C2769      C2774   1.404       .  A
C2769      H2776   1.085       .  S
C2771      C2772   1.405       .  A
C2771      C2778   1.508       .  S
C2772      C2773   1.406       .  A
C2772      H2777   1.085       .  S
C2774      C2775   1.508       .  S
C2775      H2779   1.111       .  S
C2775      H2780   1.110       .  S
C2775      H2781   1.110       .  S
C2778      H2782   1.110       .  S
C2778      H2783   1.110       .  S
C2778      H2784   1.111       .  S
C2785      C2786   1.404       .  A
C2785      C2790   1.408       .  A
C2785      H2792   1.084       .  S
C2786      C2787   1.414       .  A
C2787      C2788   1.398       .  A
C2787      C2794   1.509       .  S
C2788      C2789   1.405       .  A
C2788      H2793   1.084       .  S
C2789      C2790   1.417       .  A
C2790      C2791   1.507       .  S
C2791      H2795   1.111       .  S
C2791      H2796   1.110       .  S
C2791      H2797   1.111       .  S
C2794      H2798   1.109       .  S
C2794      H2799   1.109       .  S
C2794      H2800   1.111       .  S
C2801      C2802   1.404       .  A
C2801      C2806   1.403       .  A
C2801      H2808   1.084       .  S
C2802      C2803   1.421       .  A
C2803      C2804   1.403       .  A
C2803      C2810   1.508       .  S
C2804      C2805   1.401       .  A
C2804      H2809   1.084       .  S
C2805      C2806   1.416       .  A
C2806      C2807   1.508       .  S
C2807      H2811   1.111       .  S
C2807      H2812   1.109       .  S
C2807      H2813   1.111       .  S
C2810      H2814   1.108       .  S
C2810      H2815   1.110       .  S
C2810      H2816   1.111       .  S
C2817      C2818   1.404       .  A
C2817      C2822   1.399       .  A
C2817      H2824   1.084       .  S
C2818      C2819   1.417       .  A
C2819      C2820   1.410       .  A
C2819      C2826   1.506       .  S
C2820      C2821   1.403       .  A
C2820      H2825   1.084       .  S
C2821      C2822   1.411       .  A
C2822      C2823   1.510       .  S
C2823      H2827   1.111       .  S
C2823      H2828   1.110       .  S
C2823      H2829   1.110       .  S
C2826      H2830   1.109       .  S
C2826      H2831   1.110       .  S
C2826      H2832   1.111       .  S
C2833      C2834   1.404       .  A
C2833      C2838   1.406       .  A
C2833      H2840   1.084       .  S
C2834      C2835   1.414       .  A
C2835      C2836   1.401       .  A
C2835      C2842   1.509       .  S
C2836      C2837   1.407       .  A
C2836      H2841   1.084       .  S
C2837      C2838   1.417       .  A
C2838      C2839   1.507       .  S
C2839      H2843   1.111       .  S
C2839      H2844   1.110       .  S
C2839      H2845   1.110       .  S
C2842      H2846   1.111       .  S
C2842      H2847   1.110       .  S
C2842      H2848   1.111       .  S
C2849      C2850   1.403       .  A
C2849      C2854   1.404       .  A
C2849      H2856   1.084       .  S
C2850      C2851   1.417       .  A
C2851      C2852   1.404       .  A
C2851      C2858   1.508       .  S
C2852      C2853   1.403       .  A
C2852      H2857   1.084       .  S
C2853      C2854   1.417       .  A
C2854      C2855   1.509       .  S
C2855      H2859   1.111       .  S
C2855      H2860   1.110       .  S
C2855      H2861   1.111       .  S
C2858      H2862   1.110       .  S
C2858      H2863   1.110       .  S
C2858      H2864   1.111       .  S
C2865      C2866   1.403       .  A
C2865      C2870   1.402       .  A
C2865      H2872   1.085       .  S
C2866      C2867   1.413       .  A
C2867      C2868   1.405       .  A
C2867      C2874   1.507       .  S
C2868      C2869   1.406       .  A
C2868      H2873   1.084       .  S
C2869      C2870   1.416       .  A
C2870      C2871   1.508       .  S
C2871      H2875   1.111       .  S
C2871      H2876   1.110       .  S
C2871      H2877   1.109       .  S
C2874      H2878   1.109       .  S
C2874      H2879   1.110       .  S
C2874      H2880   1.111       .  S
