geometry optimzed in LAMMPS
_audit_creation_date              2020-12-01 
_audit_creation_method            'lammps2cif' 
_symmetry_space_group_name_H-M    'P1' 
_symmetry_Int_Tables_number       1 
_symmetry_cell_setting            triclinic 
loop_ 
_symmetry_equiv_pos_as_xyz 
  x,y,z 
_cell_length_a                    36.66208832 
_cell_length_b                    29.773523399135122 
_cell_length_c                    44.14288769231817 
_cell_angle_alpha                 89.99753546203308 
_cell_angle_beta                  92.54177132577752 
_cell_angle_gamma                 89.99746527450056 
loop_ 
_atom_site_label 
_atom_site_type_symbol 
_atom_site_fract_x 
_atom_site_fract_y 
_atom_site_fract_z 
_atom_site_charge 
C1          C  0.76762083  0.07895208  0.43407844     0.31600
C2          C  0.80899968  0.01680333  0.40561757     0.31600
C3          C  0.79376874  0.09698873  0.41145918    -0.04600
C4          C  0.79342923  0.05172132  0.45513422    -0.05400
C5          C  0.74683828  0.04236449  0.41681475    -0.05200
C6          C  0.81446209  0.06579058  0.39663044    -0.04600
C7          C  0.81529109  0.01917115  0.44097019    -0.05400
C8          C  0.76771840  0.01081825  0.40247388    -0.05200
C9          C  0.83210737  0.08861227  0.37448137    -0.30600
N10         N  0.82298085  0.13251564  0.37656318     0.15900
C11         C  0.79974872  0.13809721  0.39899054    -0.30600
H12         H  0.78554512  0.16904998  0.40369197     0.17800
C13         C  0.83640494  0.99960812  0.46435703    -0.29600
N14         N  0.82768397  0.01952317  0.49100096     0.14600
C15         C  0.80169975  0.05102867  0.48549594    -0.29600
C16         C  0.74413091  0.48316739  0.38631816    -0.29900
N17         N  0.70983955  0.49728585  0.39095965     0.15100
H18         H  0.75128531  0.45691895  0.37065291     0.17700
C19         C  0.71091781  0.03361437  0.40925326    -0.29900
H20         H  0.68759619  0.05385805  0.41472662     0.17700
H21         H  0.78966970  0.07190239  0.50252273     0.17700
H22         H  0.84758121  0.07405606  0.35661474     0.17800
H23         H  0.85638223  0.47319854  0.46222851     0.17700
Fe24       Fe  0.64143887  0.19809124  0.29661735     1.65800
Fe25       Fe  0.63791411  0.29474410  0.33546344     1.73200
Fe26       Fe  0.56099608  0.25025008  0.30090380     1.54400
O27         O  0.56939975  0.25283563  0.25488211    -0.80100
O28         O  0.59347233  0.29695275  0.36397619    -0.78400
O29         O  0.61216768  0.19904881  0.25347417    -0.82600
O30         O  0.60661242  0.15542946  0.31638152    -0.77400
O31         O  0.55786552  0.32164587  0.30209583    -0.79200
O32         O  0.66048356  0.24964892  0.36607678    -0.81900
C33         C  0.57662786  0.14730711  0.30303753     0.98800
C34         C  0.58793429  0.22450913  0.24027860     1.06300
O35         O  0.61393796  0.24862621  0.31039479    -1.10900
O36         O  0.68655909  0.29572321  0.31026228    -0.73400
O37         O  0.67884692  0.23855509  0.27790622    -0.76900
O38         O  0.55520951  0.17940901  0.29531939    -0.77500
C39         C  0.69677103  0.27230210  0.28777734     0.97700
O40         O  0.67294335  0.19071330  0.33731997    -0.75500
O41         O  0.61589721  0.34371061  0.30760886    -0.80700
C42         C  0.56680675  0.27019333  0.36801214     1.00300
C43         C  0.58258304  0.35171561  0.30058052     1.06300
O44         O  0.55230001  0.24609989  0.34686279    -0.76300
C45         C  0.67401404  0.21105471  0.36275484     1.04600
C46         C  0.62854009  0.32887662  0.07115711     0.31600
C47         C  0.58713943  0.26670203  0.09957842     0.31600
C48         C  0.60239818  0.34689162  0.09378752    -0.04600
C49         C  0.60273385  0.30168579  0.05008452    -0.05400
C50         C  0.64930827  0.29225224  0.08839347    -0.05200
C51         C  0.58168957  0.31568058  0.10858953    -0.04600
C52         C  0.58085748  0.26912260  0.06422228    -0.05400
C53         C  0.62841910  0.26069247  0.10271475    -0.05200
C54         C  0.56400710  0.33848254  0.13072527    -0.30600
N55         N  0.57313259  0.38238708  0.12866680     0.15900
C56         C  0.59640265  0.38798897  0.10626739    -0.30600
H57         H  0.61060385  0.41894886  0.10158332     0.17800
C58         C  0.55975992  0.24960080  0.04080908    -0.29600
N59         N  0.56850659  0.26955383  0.01418219     0.14600
C60         C  0.59449466  0.30103689  0.01972010    -0.29600
C61         C  0.65200156  0.23297641  0.11882209    -0.29900
N62         N  0.68629659  0.24707204  0.11417154     0.15100
H63         H  0.64484298  0.20670736  0.13447184     0.17700
C64         C  0.68522528  0.28344483  0.09591685    -0.29900
H65         H  0.70855161  0.30368716  0.09045650     0.17700
H66         H  0.60654102  0.32193488  0.00271469     0.17700
H67         H  0.54849139  0.32391367  0.14856256     0.17800
H68         H  0.53977122  0.22320047  0.04290942     0.17700
Fe69       Fe  0.75469311  0.44800978  0.20852604     1.65800
Fe70       Fe  0.75811134  0.04476922  0.16979821     1.73200
Fe71       Fe  0.83504058  0.00037756  0.20439900     1.54400
O72         O  0.82652304  0.50300964  0.25038763    -0.80100
O73         O  0.80258313  0.04697509  0.14130391    -0.78400
O74         O  0.78388283  0.44905129  0.25171614    -0.82600
O75         O  0.78968473  0.40558042  0.18874346    -0.77400
O76         O  0.83812769  0.07177164  0.20315679    -0.79200
O77         O  0.73556366  0.49971426  0.13914122    -0.81900
C78         C  0.81957728  0.39744249  0.20221995     0.98800
C79         C  0.80802718  0.47459844  0.26495236     1.06300
O80         O  0.78210754  0.49866883  0.19485456    -1.10900
O81         O  0.70947274  0.04566977  0.19501043    -0.73400
O82         O  0.71710036  0.48825707  0.22719403    -0.76900
O83         O  0.84091291  0.42955693  0.21006171    -0.77500
C84         C  0.69921857  0.02209864  0.21741439     0.97700
O85         O  0.72330895  0.44058163  0.16778203    -0.75500
O86         O  0.78007405  0.09373400  0.19768644    -0.80700
C87         C  0.82923743  0.02018196  0.13727998     1.00300
C88         C  0.81337940  0.10179522  0.20470435     1.06300
O89         O  0.84377533  0.99615426  0.15845401    -0.76300
C90         C  0.72215922  0.46103751  0.14239096     1.04600
Fe91       Fe  0.55890465  0.50007613  0.30051430     1.65800
Fe92       Fe  0.62479545  0.45737077  0.26016460     1.73200
Fe93       Fe  0.58034918  0.04766291  0.23420750     1.54400
O94         O  0.52462089  0.05249526  0.24251825    -0.80100
O95         O  0.66166822  0.50801600  0.25727410    -0.78400
O96         O  0.51299048  0.49512148  0.27335449    -0.82600
O97         O  0.55445955  0.07151950  0.30158014    -0.77400
O98         O  0.56690360  0.49977558  0.20319886    -0.79200
O99         O  0.63897761  0.45475421  0.30608903    -0.81900
C100        C  0.57299427  0.10260917  0.28927233     0.98800
C101        C  0.50267564  0.52563742  0.25495793     1.06300
O102        O  0.58781563  0.50159924  0.26504691    -1.10900
O103        O  0.58853138  0.40608996  0.26357499    -0.73400
O104        O  0.56227516  0.42838084  0.30522059    -0.76900
O105        O  0.59141720  0.09602693  0.26589499    -0.77500
C106        C  0.57469904  0.39716690  0.28849054     0.97700
O107        O  0.60409137  0.00543891  0.32840282    -0.75500
O108        O  0.61411434  0.45412121  0.21364281    -0.80700
C109        C  0.66425170  0.02894822  0.23267391     1.00300
C110        C  0.58603366  0.46582985  0.19760970     1.06300
O111        O  0.63581845  0.04676685  0.21983209    -0.76300
C112        C  0.63139550  0.47955292  0.32833867     1.04600
Fe113      Fe  0.83707699  0.25015709  0.20474610     1.65800
Fe114      Fe  0.77115567  0.20754492  0.24509230     1.73200
Fe115      Fe  0.81565811  0.29780832  0.27103915     1.54400
O116        O  0.87140128  0.30252924  0.26275341    -0.80100
O117        O  0.73434781  0.25827233  0.24793236    -0.78400
O118        O  0.88298388  0.24514812  0.23190925    -0.82600
O119        O  0.84158272  0.32159242  0.20366984    -0.77400
O120        O  0.82905190  0.24992587  0.30205588    -0.79200
O121        O  0.75700105  0.20487747  0.19917296    -0.81900
C122        C  0.82311856  0.35273828  0.21598855     0.98800
C123        C  0.89332042  0.27560588  0.25034008     1.06300
O124        O  0.80816831  0.25172990  0.24020859    -1.10900
O125        O  0.80736452  0.15619138  0.24169698    -0.73400
O126        O  0.83366542  0.17846501  0.20006199    -0.76900
O127        O  0.80466526  0.34619878  0.23935322    -0.77500
C128        C  0.82122380  0.14725948  0.21679065     0.97700
O129        O  0.79189385  0.25554309  0.17685033    -0.75500
O130        O  0.78181260  0.20432369  0.29162077    -0.80700
C131        C  0.73174597  0.27918297  0.27253618     1.00300
C132        C  0.80990832  0.21599768  0.30764544     1.06300
O133        O  0.76017409  0.29698702  0.28539398    -0.76300
C134        C  0.76461424  0.22961873  0.17690463     1.04600
C135        C  0.12290680  0.07487785  0.07443214     0.31600
C136        C  0.08143970  0.01175863  0.10178605     0.31600
C137        C  0.09740034  0.09201564  0.09782796    -0.04600
C138        C  0.09655804  0.04922846  0.05299465    -0.05400
C139        C  0.14365368  0.03710260  0.09050247    -0.05200
C140        C  0.07663109  0.06035915  0.11210236    -0.04600
C141        C  0.07468707  0.01602593  0.06645013    -0.05400
C142        C  0.12270067  0.00504053  0.10426986    -0.05200
C143        C  0.05905417  0.08249028  0.13469012    -0.30600
N144        N  0.06825846  0.12647209  0.13329204     0.15900
C145        C  0.09155579  0.13269327  0.11098464    -0.30600
H146        H  0.10551188  0.16390244  0.10652830     0.17800
C147        C  0.05445338  0.99671243  0.04234852    -0.29600
N148        N  0.06363531  0.01758289  0.01610146     0.14600
C149        C  0.08910206  0.04933606  0.02253295    -0.29600
C150        C  0.14624825  0.47608296  0.11936086    -0.29900
N151        N  0.18059958  0.48997570  0.11471084     0.15100
H152        H  0.13906086  0.44911908  0.13446223     0.17700
C153        C  0.17957501  0.02736494  0.09737249    -0.29900
H154        H  0.20297333  0.04768446  0.09222491     0.17700
H155        H  0.10185522  0.07039510  0.00599032     0.17700
H156        H  0.04315530  0.06745559  0.15210858     0.17800
H157        H  0.03520373  0.46934296  0.04369379     0.17700
Fe158      Fe  0.25202938  0.19709681  0.20952498     1.65800
Fe159      Fe  0.25545091  0.29213146  0.16937271     1.73200
Fe160      Fe  0.33291158  0.24651413  0.20213411     1.54400
O161        O  0.32702301  0.24896681  0.24857288    -0.80100
O162        O  0.29928713  0.29472698  0.14018184    -0.78400
O163        O  0.28385850  0.19610304  0.25138648    -0.82600
O164        O  0.28404701  0.15253081  0.18836734    -0.77400
O165        O  0.33642113  0.31782375  0.20102263    -0.79200
O166        O  0.23274307  0.24664673  0.13940004    -0.81900
C167        C  0.31517224  0.14391523  0.19957935     0.98800
C168        C  0.30908500  0.22083208  0.26380097     1.06300
O169        O  0.27984718  0.24609415  0.19420635    -1.10900
O170        O  0.20668845  0.29263207  0.19486267    -0.73400
O171        O  0.21803254  0.24009858  0.22992652    -0.76900
O172        O  0.33745602  0.17550376  0.20662658    -0.77500
C173        C  0.19795333  0.27094280  0.21860014     0.97700
O174        O  0.21751052  0.19127188  0.17023928    -0.75500
O175        O  0.27838307  0.34083673  0.19687960    -0.80700
C176        C  0.32539906  0.26745874  0.13545119     1.00300
C177        C  0.31206501  0.34832324  0.20287916     1.06300
O178        O  0.33980205  0.24248814  0.15607708    -0.76300
C179        C  0.21730256  0.20959216  0.14410269     1.04600
C180        C  0.27305852  0.32502678  0.43134486     0.31600
C181        C  0.31443861  0.26189331  0.40392089     0.31600
C182        C  0.29840096  0.34213014  0.40781579    -0.04600
C183        C  0.29956531  0.29949601  0.45272078    -0.05400
C184        C  0.25226299  0.28716388  0.41540858    -0.05200
C185        C  0.31913000  0.31046641  0.39351745    -0.04600
C186        C  0.32138208  0.26627663  0.43922585    -0.05400
C187        C  0.27317935  0.25509399  0.40160328    -0.05200
C188        C  0.33674796  0.33260016  0.37095603    -0.30600
N189        N  0.32760336  0.37659549  0.37239150     0.15900
C190        C  0.30429310  0.38282295  0.39468820    -0.30600
H191        H  0.29044438  0.41408249  0.39921276     0.17800
C192        C  0.34167461  0.24694681  0.46328602    -0.29600
N193        N  0.33259138  0.26783599  0.48955031     0.14600
C194        C  0.30712832  0.29961821  0.48316865    -0.29600
C195        C  0.24959574  0.22616500  0.38653404    -0.29900
N196        N  0.21525570  0.24008017  0.39121536     0.15100
H197        H  0.25675407  0.19926448  0.37137173     0.17700
C198        C  0.21632577  0.27745407  0.40857108    -0.29900
H199        H  0.19295399  0.29783677  0.41369886     0.17700
H200        H  0.29439546  0.32063854  0.49974279     0.17700
H201        H  0.35271075  0.31758287  0.35357232     0.17800
H202        H  0.36084860  0.21949897  0.46190931     0.17700
Fe203      Fe  0.14398342  0.44693735  0.29612936     1.65800
Fe204      Fe  0.14068590  0.04203347  0.33623752     1.73200
Fe205      Fe  0.06316358  0.99652627  0.30351688     1.54400
O206        O  0.06904744  0.49888771  0.25707127    -0.80100
O207        O  0.09688468  0.04471732  0.36546419    -0.78400
O208        O  0.11213044  0.44591671  0.25428040    -0.82600
O209        O  0.11192937  0.40242254  0.31730213    -0.77400
O210        O  0.05973871  0.06785769  0.30457413    -0.79200
O211        O  0.16339116  0.49657967  0.36621596    -0.81900
C212        C  0.08079391  0.39387617  0.30607678     0.98800
C213        C  0.08692828  0.47067642  0.24185723     1.06300
O214        O  0.11622510  0.49599777  0.31144290    -1.10900
O215        O  0.18940903  0.04243103  0.31072028    -0.73400
O216        O  0.17796807  0.48989254  0.27568328    -0.76900
O217        O  0.05854039  0.42551508  0.29905957    -0.77500
C218        C  0.19809147  0.02070551  0.28698681     0.97700
O219        O  0.17854120  0.44112897  0.33540710    -0.75500
O220        O  0.11780598  0.09073574  0.30871414    -0.80700
C221        C  0.07073350  0.01751376  0.37020911     1.00300
C222        C  0.08414177  0.09829706  0.30270312     1.06300
O223        O  0.05627456  0.99258281  0.34958594    -0.76300
C224        C  0.17881166  0.45951168  0.36152694     1.04600
Fe225      Fe  0.06172458  0.24659767  0.30533727     1.65800
Fe226      Fe  0.12401303  0.20345398  0.26158687     1.73200
Fe227      Fe  0.07874114  0.29375370  0.23772727     1.54400
O228        O  0.02387587  0.29950320  0.24876382    -0.80100
O229        O  0.16079119  0.25403282  0.25810966    -0.78400
O230        O  0.01365320  0.24317919  0.28085665    -0.82600
O231        O  0.05858997  0.31810155  0.30689661    -0.77400
O232        O  0.06265244  0.24571491  0.20736958    -0.79200
O233        O  0.14086399  0.19893700  0.30694771    -0.81900
C234        C  0.07607718  0.34884456  0.29322195     0.98800
C235        C  0.00252859  0.27375496  0.26281214     1.06300
O236        O  0.08781145  0.24785946  0.26834457    -1.10900
O237        O  0.08729540  0.15298238  0.26574246    -0.73400
O238        O  0.06449798  0.17473911  0.30904809    -0.76900
O239        O  0.09235045  0.34190013  0.26879218    -0.77500
C240        C  0.07531503  0.14375047  0.29130977     0.97700
O241        O  0.10884511  0.25054496  0.33102300    -0.75500
O242        O  0.11109365  0.20145591  0.21535081    -0.80700
C243        C  0.16255394  0.27565847  0.23369223     1.00300
C244        C  0.08156526  0.21195303  0.20090166     1.06300
O245        O  0.13345451  0.29252579  0.22121086    -0.76300
C246        C  0.13529683  0.22353955  0.32974490     1.04600
Fe247      Fe  0.33428969  0.49663025  0.20021531     1.65800
Fe248      Fe  0.27226955  0.45317441  0.24406297     1.73200
Fe249      Fe  0.31725952  0.04373484  0.26783068     1.54400
O250        O  0.37210814  0.04960744  0.25676246    -0.80100
O251        O  0.23527156  0.50349190  0.24755905    -0.78400
O252        O  0.38238895  0.49332234  0.22464456    -0.82600
O253        O  0.33735279  0.06813623  0.19866987    -0.77400
O254        O  0.33346509  0.49582202  0.29825169    -0.79200
O255        O  0.25538887  0.44855290  0.19871374    -0.81900
C256        C  0.31984825  0.09883909  0.21236298     0.98800
C257        C  0.39347817  0.02391998  0.24268463     1.06300
O258        O  0.30827416  0.49779273  0.23724693    -1.10900
O259        O  0.30922811  0.40296877  0.23990200    -0.73400
O260        O  0.33162087  0.42477179  0.19646676    -0.76900
O261        O  0.30352912  0.09181432  0.23675576    -0.77500
C262        C  0.32099253  0.39375105  0.21426088     0.97700
O263        O  0.28708947  0.00046641  0.17463008    -0.75500
O264        O  0.28519624  0.45128493  0.29028465    -0.80700
C265        C  0.23349261  0.02531026  0.27190032     1.00300
C266        C  0.31464213  0.46200639  0.30476471     1.06300
O267        O  0.26255417  0.04235600  0.28432479    -0.76300
C268        C  0.26075984  0.47328274  0.17593845     1.04600
C269        C  0.24867620  0.36118824  0.44068224    -0.16900
C270        C  0.22843858  0.39067807  0.43137800     0.07200
C271        C  0.21001943  0.41802839  0.40923532     0.09000
C272        C  0.19647766  0.43729003  0.38732536    -0.17800
C273        C  0.33067488  0.40774617  0.34931680    -0.11700
C274        C  0.32651521  0.43460373  0.32941815    -0.13200
C275        C  0.18519862  0.22764324  0.37301015    -0.11700
C276        C  0.16093097  0.22214891  0.35453042    -0.13200
C277        C  0.31823841  0.21645731  0.29635397    -0.16900
C278        C  0.32626671  0.21524601  0.32356079     0.07200
C279        C  0.33308686  0.21896281  0.35586473     0.09000
C280        C  0.33181984  0.23114076  0.38226811    -0.17800
C281        C  0.33827524  0.26383790  0.10508538    -0.16900
C282        C  0.34510030  0.25952894  0.07864469     0.07200
C283        C  0.34755384  0.25621638  0.04669994     0.09000
C284        C  0.34427172  0.25829043  0.51966788    -0.17800
C285        C  0.14733932  0.11101795  0.06513616    -0.16900
C286        C  0.16761076  0.14049556  0.07440641     0.07200
C287        C  0.18609641  0.16793174  0.09646279     0.09000
C288        C  0.19966826  0.18730378  0.11831531    -0.17800
C289        C  0.06968412  0.18438205  0.17633462    -0.11700
C290        C  0.06537707  0.15753843  0.15644257    -0.13200
C291        C  0.06402370  0.98099714  0.12341600    -0.16900
C292        C  0.06277551  0.96878672  0.14981571     0.07200
C293        C  0.06965515  0.96503837  0.18211323     0.09000
C294        C  0.07773315  0.46625367  0.20931245    -0.17800
C295        C  0.05787524  0.01391898  0.40058907    -0.16900
C296        C  0.05104164  0.00962100  0.42703283     0.07200
C297        C  0.04853412  0.00630258  0.45897866     0.09000
C298        C  0.05191474  0.00819246  0.98596940    -0.17800
C299        C  0.21067634  0.47739355  0.13283990    -0.11700
C300        C  0.23502375  0.47184123  0.15123393    -0.13400
C301        C  0.93152672  0.28042574  0.25617018    -0.11700
C302        C  0.96416733  0.27977606  0.25886095    -0.13200
C303        C  0.46447198  0.53061133  0.24920997    -0.11700
C304        C  0.43182877  0.03002141  0.24659191    -0.13200
C305        C  0.65315469  0.36474344  0.06159643    -0.16900
C306        C  0.67375847  0.39379620  0.07110716     0.07200
C307        C  0.69242551  0.42055980  0.09353159     0.09000
C308        C  0.70568670  0.43939358  0.11577008    -0.17800
C309        C  0.57567878  0.43924297  0.17225857    -0.11700
C310        C  0.57116837  0.41332033  0.15191184    -0.13200
C311        C  0.71632503  0.23531580  0.13257917    -0.11700
C312        C  0.74024860  0.22966037  0.15130877    -0.13200
C313        C  0.58048212  0.22071369  0.20748928    -0.16900
C314        C  0.57348370  0.22009715  0.18013266     0.07200
C315        C  0.56761549  0.22437300  0.14779363     0.09000
C316        C  0.56950666  0.23657477  0.12146191    -0.17800
C317        C  0.55494925  0.26024617  0.98456603    -0.16900
C318        C  0.54684692  0.25955481  0.45716038     0.07200
C319        C  0.54776357  0.26220095  0.42501671     0.09000
C320        C  0.55370408  0.26613446  0.39833727    -0.17800
C321        C  0.74300719  0.11481934  0.44364155    -0.16900
C322        C  0.72241127  0.14385377  0.43408255     0.07200
C323        C  0.70377908  0.17056454  0.41160366     0.09000
C324        C  0.69052944  0.18937516  0.38934857    -0.17800
C325        C  0.82028378  0.18938545  0.33297912    -0.11700
C326        C  0.82486433  0.16345478  0.35331365    -0.13200
C327        C  0.81545866  0.47078217  0.29773754    -0.16900
C328        C  0.82250718  0.97016708  0.32508386     0.07200
C329        C  0.82846248  0.97445573  0.35740865     0.09000
C330        C  0.82662096  0.98667627  0.38373634    -0.17800
C331        C  0.84229538  0.01601200  0.10694468    -0.16900
C332        C  0.84820442  0.01202438  0.08026147     0.07200
C333        C  0.84910893  0.00940113  0.04811341     0.09000
C334        C  0.84122974  0.01011304  0.52060621    -0.17800
C335        C  0.67979147  0.48549367  0.37258080    -0.11700
C336        C  0.65583363  0.47973238  0.35389307    -0.13200
C337        C  0.77043775  0.07895124  0.93342133     0.31600
C338        C  0.81211798  0.01661114  0.90543423     0.31600
C339        C  0.79600877  0.09669379  0.91026360    -0.04600
C340        C  0.79686715  0.05288609  0.95465329    -0.05400
C341        C  0.74984953  0.04144256  0.91693215    -0.05200
C342        C  0.81683936  0.06541709  0.89568065    -0.04600
C343        C  0.81887612  0.02017249  0.94079184    -0.05400
C344        C  0.77086306  0.00981798  0.90280033    -0.05200
C345        C  0.83394008  0.08789501  0.87304113    -0.30600
N346        N  0.82438382  0.13170515  0.87464487     0.15900
C347        C  0.80138904  0.13754450  0.89720191    -0.30600
H348        H  0.78707757  0.16848127  0.90171869     0.17800
C349        C  0.83982686  0.00101593  0.96451213    -0.29600
N350        N  0.83090752  0.02135978  0.99100024     0.14600
C351        C  0.80494081  0.05274371  0.98506691    -0.29600
C352        C  0.74734227  0.48179355  0.88682533    -0.29900
N353        N  0.71297356  0.49576400  0.89138520     0.15100
H354        H  0.75460286  0.45559178  0.87116309     0.17700
C355        C  0.71396167  0.03231593  0.90948054    -0.29900
H356        H  0.69060105  0.05267444  0.91468562     0.17700
H357        H  0.79247218  0.07358546  0.00188469     0.17700
H358        H  0.84946513  0.07313044  0.85528236     0.17800
H359        H  0.85956835  0.47426601  0.96273161     0.17700
Fe360      Fe  0.64235957  0.19910491  0.79570301     1.65800
Fe361      Fe  0.63916080  0.29452078  0.83561628     1.73200
Fe362      Fe  0.56185511  0.25029927  0.80156265     1.54400
O363        O  0.56906700  0.25310675  0.75534649    -0.80100
O364        O  0.59502624  0.29687273  0.86438410    -0.78400
O365        O  0.61167521  0.19937178  0.75319623    -0.82600
O366        O  0.60878664  0.15581512  0.81629864    -0.77400
O367        O  0.55886436  0.32167921  0.80292600    -0.79200
O368        O  0.66156180  0.24874586  0.86571218    -0.81900
C369        C  0.57825280  0.14749732  0.80392635     0.98800
C370        C  0.58710509  0.22472781  0.74039298     1.06300
O371        O  0.61485360  0.24893037  0.81036589    -1.10900
O372        O  0.68773767  0.29533115  0.81022438    -0.73400
O373        O  0.67814318  0.24080294  0.77614400    -0.76900
O374        O  0.55650001  0.17939083  0.79639044    -0.77500
C375        C  0.69706189  0.27316251  0.78688334     0.97700
O376        O  0.67558276  0.19198576  0.83561497    -0.75500
O377        O  0.61698346  0.34380953  0.80823165    -0.80700
C378        C  0.56846453  0.27004169  0.86852958     1.00300
C379        C  0.58357291  0.35181369  0.80153766     1.06300
O380        O  0.55390298  0.24590086  0.84749414    -0.76300
C381        C  0.67610421  0.21096424  0.86153277     1.04600
C382        C  0.62563585  0.32885398  0.57182295     0.31600
C383        C  0.58412188  0.26633582  0.59979354     0.31600
C384        C  0.60012914  0.34645872  0.59507154    -0.04600
C385        C  0.59917631  0.30283408  0.55060590    -0.05400
C386        C  0.64631598  0.29131228  0.58819048    -0.05200
C387        C  0.57937216  0.31509732  0.60964172    -0.04600
C388        C  0.57725219  0.27002559  0.56445578    -0.05400
C389        C  0.62539296  0.25959642  0.60232705    -0.05200
C390        C  0.56209284  0.33753219  0.63220675    -0.30600
N391        N  0.57148200  0.38139798  0.63056626     0.15900
C392        C  0.59455074  0.38730678  0.60806802    -0.30600
H393        H  0.60871067  0.41833451  0.60350137     0.17800
C394        C  0.55627787  0.25090549  0.54074009    -0.29600
N395        N  0.56510299  0.27137070  0.51426888     0.14600
C396        C  0.59103635  0.30278674  0.52020647    -0.29600
C397        C  0.64901680  0.23147068  0.61811393    -0.29900
N398        N  0.68335279  0.24546873  0.61342541     0.15100
H399        H  0.64185743  0.20517449  0.63374184     0.17700
C400        C  0.68224009  0.28213176  0.59543383    -0.29900
H401        H  0.70555777  0.30252545  0.59016962     0.17700
H402        H  0.60344346  0.32370688  0.50339918     0.17700
H403        H  0.54648240  0.32273644  0.64990040     0.17800
H404        H  0.53659088  0.22409294  0.54250975     0.17700
Fe405      Fe  0.75374799  0.44920228  0.70942285     1.65800
Fe406      Fe  0.75690984  0.04452667  0.66943972     1.73200
Fe407      Fe  0.83420727  0.00044319  0.70360558     1.54400
O408        O  0.82692505  0.50342066  0.74980228    -0.80100
O409        O  0.80111901  0.04683991  0.64073281    -0.78400
O410        O  0.78439429  0.44960096  0.75197047    -0.82600
O411        O  0.78739308  0.40595880  0.68885353    -0.77400
O412        O  0.83715711  0.07182160  0.70212546    -0.79200
O413        O  0.73459385  0.49870505  0.63935323    -0.81900
C414        C  0.81790133  0.39764002  0.70126841     0.98800
C415        C  0.80891173  0.47504068  0.76477318     1.06300
O416        O  0.78121788  0.49902293  0.69475519    -1.10900
O417        O  0.70823975  0.04530235  0.69475105    -0.73400
O418        O  0.71788579  0.49087829  0.72890246    -0.76900
O419        O  0.83960116  0.42954683  0.70888290    -0.77500
C420        C  0.69889308  0.02313090  0.71808911     0.97700
O421        O  0.72057007  0.44199351  0.66949279    -0.75500
O422        O  0.77900937  0.09384954  0.69683097    -0.80700
C423        C  0.82765572  0.01994665  0.63662418     1.00300
C424        C  0.81241201  0.10191143  0.70352188     1.06300
O425        O  0.84220332  0.99586563  0.65769772    -0.76300
C426        C  0.72004400  0.46093986  0.64356263     1.04600
Fe427      Fe  0.56049473  0.50021340  0.80266459     1.65800
Fe428      Fe  0.62505578  0.45751029  0.76099000     1.73200
Fe429      Fe  0.57985291  0.04730021  0.73560108     1.54400
O430        O  0.52440821  0.05210601  0.74490671    -0.80100
O431        O  0.66154698  0.50847909  0.75790794    -0.78400
O432        O  0.51359624  0.49551352  0.77663477    -0.82600
O433        O  0.55631332  0.07164347  0.80374712    -0.77400
O434        O  0.56558969  0.49912219  0.70500763    -0.79200
O435        O  0.64033796  0.45421844  0.80668432    -0.81900
C436        C  0.57418765  0.10261864  0.79067355     0.98800
C437        C  0.50282237  0.52553898  0.75801901     1.06300
O438        O  0.58816608  0.50156956  0.76651529    -1.10900
O439        O  0.58879941  0.40637508  0.76470009    -0.73400
O440        O  0.56382351  0.42847713  0.80701620    -0.76900
O441        O  0.59169378  0.09584952  0.76684248    -0.77500
C442        C  0.57555734  0.39735253  0.78983564     0.97700
O443        O  0.60661337  0.00535272  0.82964495    -0.75500
O444        O  0.61360462  0.45454272  0.71456156    -0.80700
C445        C  0.66378073  0.02934423  0.73325138     1.00300
C446        C  0.58486339  0.46544365  0.69912619     1.06300
O447        O  0.63504615  0.04649735  0.72041971    -0.76300
C448        C  0.63366364  0.47909880  0.82910121     1.04600
Fe449      Fe  0.83560934  0.25029398  0.70246673     1.65800
Fe450      Fe  0.77076806  0.20771180  0.74393253     1.73200
Fe451      Fe  0.81604236  0.29734632  0.76948832     1.54400
O452        O  0.87152572  0.30210307  0.76034132    -0.80100
O453        O  0.73434168  0.25877878  0.74696283    -0.78400
O454        O  0.88239925  0.24551701  0.72864169    -0.82600
O455        O  0.83980402  0.32174841  0.70141884    -0.77400
O456        O  0.83011841  0.24908413  0.80005425    -0.79200
O457        O  0.75569322  0.20446339  0.69820405    -0.81900
C458        C  0.82193459  0.35273921  0.71449251     0.98800
C459        C  0.89313699  0.27549772  0.74729808     1.06300
O460        O  0.80776119  0.25168413  0.73852017    -1.10900
O461        O  0.80695364  0.15649029  0.74030063    -0.73400
O462        O  0.83226450  0.17855734  0.69811375    -0.76900
O463        O  0.80436303  0.34596555  0.73828450    -0.77500
C464        C  0.82036630  0.14745601  0.71523358     0.97700
O465        O  0.78963608  0.25542996  0.67529738    -0.75500
O466        O  0.78203009  0.20466724  0.79038646    -0.80700
C467        C  0.73210177  0.27952541  0.77166508     1.00300
C468        C  0.81073596  0.21548839  0.80589524     1.06300
O469        O  0.76082582  0.29661093  0.78454289    -0.76300
C470        C  0.76257160  0.22918733  0.67575951     1.04600
C471        C  0.12455616  0.07550234  0.57415151     0.31600
C472        C  0.08336928  0.01235662  0.60174510     0.31600
C473        C  0.09928357  0.09260046  0.59772678    -0.04600
C474        C  0.09798255  0.04989033  0.55289821    -0.05400
C475        C  0.14547468  0.03772100  0.59009413    -0.05200
C476        C  0.07864402  0.06092279  0.61211392    -0.04600
C477        C  0.07628032  0.01668253  0.56650589    -0.05400
C478        C  0.12463822  0.00563571  0.60398282    -0.05200
C479        C  0.06080448  0.08313072  0.63449671    -0.30600
N480        N  0.06974897  0.12716809  0.63287686     0.15900
C481        C  0.09312795  0.13336653  0.61062825    -0.30600
H482        H  0.10681976  0.16468564  0.60597865     0.17800
C483        C  0.05577661  0.99734824  0.54261362    -0.29600
N484        N  0.06462504  0.01823662  0.51630683     0.14600
C485        C  0.09013184  0.05003112  0.52250134    -0.29600
C486        C  0.14829135  0.47666504  0.61892168    -0.29900
N487        N  0.18260550  0.49055617  0.61410381     0.15100
H488        H  0.14120554  0.44971769  0.63407415     0.17700
C489        C  0.18144821  0.02797874  0.59678178    -0.29900
H490        H  0.20479334  0.04833226  0.59154586     0.17700
H491        H  0.10269440  0.07105153  0.50583208     0.17700
H492        H  0.04479621  0.06817098  0.65187439     0.17800
H493        H  0.03661933  0.46990661  0.54411956     0.17700
Fe494      Fe  0.25271723  0.19644926  0.70901862     1.65800
Fe495      Fe  0.25627479  0.29239396  0.66971604     1.73200
Fe496      Fe  0.33358228  0.24658341  0.70263566     1.54400
O497        O  0.32700398  0.24868879  0.74897258    -0.80100
O498        O  0.30023914  0.29490534  0.64057692    -0.78400
O499        O  0.28389040  0.19557716  0.75120660    -0.82600
O500        O  0.28551749  0.15263199  0.68796764    -0.77400
O501        O  0.33715514  0.31791947  0.70171365    -0.79200
O502        O  0.23338451  0.24749742  0.63939701    -0.81900
C503        C  0.31631536  0.14396646  0.69978284     0.98800
C504        C  0.30885100  0.22041403  0.76392412     1.06300
O505        O  0.28050548  0.24602110  0.69435724    -1.10900
O506        O  0.20758520  0.29295622  0.69527872    -0.73400
O507        O  0.21767043  0.23843225  0.72921991    -0.76900
O508        O  0.33839524  0.17559084  0.70716038    -0.77500
C509        C  0.19833657  0.27045101  0.71853144     0.97700
O510        O  0.21897314  0.19069142  0.66935880    -0.75500
O511        O  0.27914545  0.34080563  0.69747601    -0.80700
C512        C  0.32646935  0.26774880  0.63590069     1.00300
C513        C  0.31277044  0.34836573  0.70358139     1.06300
O514        O  0.34091701  0.24286683  0.65658338    -0.76300
C515        C  0.21843143  0.20997583  0.64354685     1.04600
C516        C  0.27134442  0.32565227  0.93165443     0.31600
C517        C  0.31250245  0.26255084  0.90398262     0.31600
C518        C  0.29662964  0.34279708  0.90810004    -0.04600
C519        C  0.29790628  0.29995671  0.95287862    -0.05400
C520        C  0.25041196  0.28792395  0.91567202    -0.05200
C521        C  0.31725337  0.31113914  0.89368017    -0.04600
C522        C  0.31959627  0.26677527  0.93922354    -0.05400
C523        C  0.27123462  0.25586367  0.90174686    -0.05200
C524        C  0.33513386  0.33338692  0.87134399    -0.30600
N525        N  0.32622664  0.37742931  0.87301041     0.15900
C526        C  0.30282916  0.38359675  0.89525147    -0.30600
H527        H  0.28915884  0.41491997  0.89993003     0.17800
C528        C  0.34012717  0.24738727  0.96307652    -0.29600
N529        N  0.33130486  0.26821066  0.98940951     0.14600
C530        C  0.30578645  0.30001770  0.98327168    -0.29600
C531        C  0.24757360  0.22691537  0.88680735    -0.29900
N532        N  0.21326603  0.24079810  0.89165427     0.15100
H533        H  0.25464820  0.19999018  0.87163280     0.17700
C534        C  0.21443377  0.27819244  0.90900095    -0.29900
H535        H  0.19109269  0.29853419  0.91426537     0.17700
H536        H  0.29325651  0.32100967  0.99997308     0.17700
H537        H  0.35114474  0.31845205  0.85395686     0.17800
H538        H  0.35930079  0.21996875  0.96152550     0.17700
Fe539      Fe  0.14316703  0.44635145  0.79661224     1.65800
Fe540      Fe  0.13978716  0.04234552  0.83586837     1.73200
Fe541      Fe  0.06239090  0.99671910  0.80297926     1.54400
O542        O  0.06895816  0.49869710  0.75663662    -0.80100
O543        O  0.09585483  0.04501398  0.86503257    -0.78400
O544        O  0.11194675  0.44542512  0.75445444    -0.82600
O545        O  0.11031955  0.40267616  0.81773227    -0.77400
O546        O  0.05894805  0.06807578  0.80383266    -0.79200
O547        O  0.16261812  0.49741769  0.86619470    -0.81900
C548        C  0.07952991  0.39405896  0.80588311     0.98800
C549        C  0.08702700  0.47029906  0.74171661     1.06300
O550        O  0.11546494  0.49601742  0.81125452    -1.10900
O551        O  0.18844622  0.04272273  0.81028052    -0.73400
O552        O  0.17820327  0.48824456  0.77633520    -0.76900
O553        O  0.05747877  0.42572240  0.79851069    -0.77500
C554        C  0.19762157  0.02018325  0.78702234     0.97700
O555        O  0.17698259  0.44059251  0.83623878    -0.75500
O556        O  0.11699660  0.09080419  0.80810079    -0.80700
C557        C  0.06956024  0.01795926  0.86971667     1.00300
C558        C  0.08338975  0.09845425  0.80197275     1.06300
O559        O  0.05504749  0.99312361  0.84903884    -0.76300
C560        C  0.17755244  0.45988490  0.86204779     1.04600
Fe561      Fe  0.06066521  0.24671289  0.80436161     1.65800
Fe562      Fe  0.12404869  0.20385684  0.76146695     1.73200
Fe563      Fe  0.07917707  0.29437226  0.73726742     1.54400
O564        O  0.02403845  0.30002144  0.74752013    -0.80100
O565        O  0.16108084  0.25427984  0.75821981    -0.78400
O566        O  0.01317429  0.24319991  0.77902699    -0.82600
O567        O  0.05737912  0.31822261  0.80600126    -0.77400
O568        O  0.06361159  0.24656898  0.70664716    -0.79200
O569        O  0.14011889  0.19954210  0.80703160    -0.81900
C570        C  0.07524686  0.34909073  0.79278566     0.98800
C571        C  0.00239052  0.27382421  0.76088280     1.06300
O572        O  0.08770824  0.24827526  0.76784956    -1.10900
O573        O  0.08726457  0.15332024  0.76518809    -0.73400
O574        O  0.06344467  0.17486217  0.80810033    -0.76900
O575        O  0.09220376  0.34231928  0.76866352    -0.77500
C576        C  0.07473329  0.14395624  0.79052804     0.97700
O577        O  0.10718551  0.25062804  0.83081096    -0.75500
O578        O  0.11171912  0.20186809  0.71514939    -0.80700
C579        C  0.16307451  0.27583352  0.73378468     1.00300
C580        C  0.08247285  0.21267808  0.70039076     1.06300
O581        O  0.13414487  0.29311318  0.72129725    -0.76300
C582        C  0.13386553  0.22390308  0.82981861     1.04600
Fe583      Fe  0.33532331  0.49662508  0.70120056     1.65800
Fe584      Fe  0.27215317  0.45346580  0.74415897     1.73200
Fe585      Fe  0.31675691  0.04420776  0.76830167     1.54400
O586        O  0.37188342  0.04998402  0.75804196    -0.80100
O587        O  0.23491562  0.50364481  0.74743599    -0.78400
O588        O  0.38283028  0.49321173  0.72651190    -0.82600
O589        O  0.33851843  0.06814453  0.69958275    -0.77400
O590        O  0.33241038  0.49652518  0.79898497    -0.79200
O591        O  0.25605164  0.44910881  0.69859087    -0.81900
C592        C  0.32060250  0.09895478  0.71280953     0.98800
C593        C  0.39356672  0.02385186  0.74466063     1.06300
O594        O  0.30832034  0.49807664  0.73774087    -1.10900
O595        O  0.30915956  0.40317430  0.74042952    -0.73400
O596        O  0.33265823  0.42477485  0.69741563    -0.76900
O597        O  0.30361569  0.09209246  0.73689938    -0.77500
C598        C  0.32152471  0.39383344  0.71502902     0.97700
O599        O  0.28874633  0.00043850  0.67480959    -0.75500
O600        O  0.28449238  0.45152304  0.79047224    -0.80700
C601        C  0.23290506  0.02539262  0.77179456     1.00300
C602        C  0.31362623  0.46259441  0.80529246     1.06300
O603        O  0.26179936  0.04281425  0.78423836    -0.76300
C604        C  0.26215078  0.47358535  0.67582120     1.04600
C605        C  0.24713139  0.36184549  0.94121112    -0.16900
C606        C  0.22694611  0.39151306  0.93212297     0.07200
C607        C  0.20850491  0.41900119  0.91008833     0.09000
C608        C  0.19499895  0.43814085  0.88812196    -0.17800
C609        C  0.32939116  0.40866394  0.85002917    -0.11700
C610        C  0.32526698  0.43541929  0.83008984    -0.13200
C611        C  0.18315254  0.22831096  0.87352981    -0.11700
C612        C  0.15903696  0.22266196  0.85493258    -0.13200
C613        C  0.31743317  0.21605162  0.79653788    -0.16900
C614        C  0.32504143  0.21507258  0.82380116     0.07200
C615        C  0.33142286  0.21923675  0.85609970     0.09000
C616        C  0.32989236  0.23174172  0.88239629    -0.17800
C617        C  0.33936394  0.26410362  0.60549409    -0.16900
C618        C  0.34609070  0.25975062  0.57900724     0.07200
C619        C  0.34848364  0.25629203  0.54701634     0.09000
C620        C  0.34322083  0.25844074  0.01939930    -0.17800
C621        C  0.14876751  0.11170598  0.56460839    -0.16900
C622        C  0.16895589  0.14141048  0.57362311     0.07200
C623        C  0.18744569  0.16900700  0.59556097     0.09000
C624        C  0.20098577  0.18822374  0.61747917    -0.17800
C625        C  0.07078862  0.18525917  0.67573106    -0.11700
C626        C  0.06661112  0.15839609  0.65586464    -0.13200
C627        C  0.06595019  0.98149851  0.62328034    -0.16900
C628        C  0.06439606  0.96895169  0.64956469     0.07200
C629        C  0.07077394  0.96479747  0.68186122     0.09000
C630        C  0.07839941  0.46583616  0.70911883    -0.17800
C631        C  0.05668268  0.01434632  0.90013330    -0.16900
C632        C  0.04999072  0.00994303  0.92662551     0.07200
C633        C  0.04765608  0.00634572  0.95861758     0.09000
C634        C  0.05279134  0.00850069  0.48628916    -0.17800
C635        C  0.21272839  0.47801127  0.63220635    -0.11700
C636        C  0.23689232  0.47233200  0.65076081    -0.13400
C637        C  0.93143654  0.27997310  0.75293741    -0.11700
C638        C  0.96406125  0.27943711  0.75606789    -0.13200
C639        C  0.46451329  0.53010022  0.75250187    -0.11700
C640        C  0.43188476  0.02956214  0.74944682    -0.13200
C641        C  0.65039079  0.36478482  0.56261188    -0.16900
C642        C  0.67103433  0.39353715  0.57250891     0.07200
C643        C  0.68962626  0.41988436  0.59521178     0.09000
C644        C  0.70299758  0.43868360  0.61742254    -0.17800
C645        C  0.57404503  0.43836186  0.67411500    -0.11700
C646        C  0.56946932  0.41219361  0.65390637    -0.13200
C647        C  0.71343801  0.23385506  0.63187073    -0.11700
C648        C  0.73764421  0.22870759  0.65046321    -0.13200
C649        C  0.57874917  0.22077946  0.70769539    -0.16900
C650        C  0.57123083  0.21995911  0.68039821     0.07200
C651        C  0.56493829  0.22395813  0.64805129     0.09000
C652        C  0.56656540  0.23604086  0.62165171    -0.17800
C653        C  0.55230272  0.26196308  0.48439543    -0.16900
C654        C  0.54890041  0.25811218  0.95743960     0.07200
C655        C  0.54954389  0.26140003  0.92539251     0.09000
C656        C  0.55549368  0.26584388  0.89880241    -0.17800
C657        C  0.74559049  0.11480510  0.94261406    -0.16900
C658        C  0.72493831  0.14353050  0.93267704     0.07200
C659        C  0.70641051  0.16988508  0.90993292     0.09000
C660        C  0.69310821  0.18870562  0.88769834    -0.17800
C661        C  0.82141613  0.18842456  0.83094470    -0.11700
C662        C  0.82611061  0.16238701  0.85121358    -0.13200
C663        C  0.81727337  0.47117068  0.79748152    -0.16900
C664        C  0.82486917  0.97040334  0.82477170     0.07200
C665        C  0.83128735  0.97440008  0.85711286     0.09000
C666        C  0.82972521  0.98642158  0.88353393    -0.17800
C667        C  0.84063039  0.01562461  0.60636048    -0.16900
C668        C  0.84659802  0.01113133  0.57977783     0.07200
C669        C  0.84726522  0.00788631  0.54773064     0.09000
C670        C  0.84367031  0.01187776  0.02087698    -0.17800
C671        C  0.68297400  0.48409284  0.87285686    -0.11700
C672        C  0.65877758  0.47878581  0.85427509    -0.13200
C673        C  0.76762082  0.57895202  0.43407845     0.31600
C674        C  0.80899966  0.51680329  0.40561758     0.31600
C675        C  0.79376877  0.59698867  0.41145922    -0.04600
C676        C  0.79342919  0.55172121  0.45513422    -0.05400
C677        C  0.74683825  0.54236448  0.41681473    -0.05200
C678        C  0.81446213  0.56579052  0.39663044    -0.04600
C679        C  0.81529109  0.51917099  0.44097020    -0.05400
C680        C  0.76771839  0.51081822  0.40247385    -0.05200
C681        C  0.83210734  0.58861229  0.37448142    -0.30600
N682        N  0.82298090  0.63251553  0.37656317     0.15900
C683        C  0.79974871  0.63809719  0.39899060    -0.30600
H684        H  0.78554526  0.66904966  0.40369197     0.17800
C685        C  0.83640483  0.49960811  0.46435707    -0.29600
N686        N  0.82768401  0.51952293  0.49100092     0.14600
C687        C  0.80169966  0.55102863  0.48549597    -0.29600
C688        C  0.74413091  0.98316740  0.38631820    -0.29900
N689        N  0.70983958  0.99728583  0.39095969     0.15100
H690        H  0.75128532  0.95691894  0.37065294     0.17700
C691        C  0.71091782  0.53361432  0.40925321    -0.29900
H692        H  0.68759593  0.55385824  0.41472664     0.17700
H693        H  0.78966987  0.57190196  0.50252246     0.17700
H694        H  0.84758152  0.57405573  0.35661435     0.17800
H695        H  0.85638160  0.97319951  0.46222856     0.17700
Fe696      Fe  0.64143890  0.69809126  0.29661733     1.65800
Fe697      Fe  0.63791414  0.79474410  0.33546345     1.73200
Fe698      Fe  0.56099611  0.75025008  0.30090380     1.54400
O699        O  0.56939977  0.75283566  0.25488210    -0.80100
O700        O  0.59347235  0.79695273  0.36397620    -0.78400
O701        O  0.61216770  0.69904884  0.25347415    -0.82600
O702        O  0.60661247  0.65542945  0.31638148    -0.77400
O703        O  0.55786555  0.82164586  0.30209584    -0.79200
O704        O  0.66048359  0.74964890  0.36607679    -0.81900
C705        C  0.57662790  0.64730711  0.30303750     0.98800
C706        C  0.58793431  0.72450916  0.24027859     1.06300
O707        O  0.61393799  0.74862622  0.31039479    -1.10900
O708        O  0.68655912  0.79572322  0.31026229    -0.73400
O709        O  0.67884692  0.73855515  0.27790619    -0.76900
O710        O  0.55520956  0.67940902  0.29531938    -0.77500
C711        C  0.69677105  0.77230213  0.28777734     0.97700
O712        O  0.67294340  0.69071332  0.33731995    -0.75500
O713        O  0.61589724  0.84371062  0.30760889    -0.80700
C714        C  0.56680677  0.77019330  0.36801214     1.00300
C715        C  0.58258306  0.85171561  0.30058054     1.06300
O716        O  0.55230004  0.74609987  0.34686278    -0.76300
C717        C  0.67401408  0.71105470  0.36275482     1.04600
C718        C  0.62854007  0.82887667  0.07115713     0.31600
C719        C  0.58713939  0.76670208  0.09957843     0.31600
C720        C  0.60239813  0.84689163  0.09378752    -0.04600
C721        C  0.60273386  0.80168586  0.05008450    -0.05400
C722        C  0.64930825  0.79225231  0.08839350    -0.05200
C723        C  0.58168952  0.81568063  0.10858953    -0.04600
C724        C  0.58085747  0.76912265  0.06422227    -0.05400
C725        C  0.62841906  0.76069258  0.10271475    -0.05200
C726        C  0.56400708  0.83848264  0.13072527    -0.30600
N727        N  0.57313251  0.88238706  0.12866685     0.15900
C728        C  0.59640267  0.88798909  0.10626737    -0.30600
H729        H  0.61060351  0.91894822  0.10158344     0.17800
C730        C  0.55975990  0.74960084  0.04080908    -0.29600
N731        N  0.56850666  0.76955398  0.01418215     0.14600
C732        C  0.59449465  0.80103689  0.01972013    -0.29600
C733        C  0.65200146  0.73297640  0.11882217    -0.29900
N734        N  0.68629661  0.74707219  0.11417154     0.15100
H735        H  0.64484311  0.70670813  0.13447147     0.17700
C736        C  0.68522523  0.78344482  0.09591691    -0.29900
H737        H  0.70855188  0.80368744  0.09045646     0.17700
H738        H  0.60654132  0.82193538  0.00271434     0.17700
H739        H  0.54849125  0.82391360  0.14856272     0.17800
H740        H  0.53977134  0.72320075  0.04290937     0.17700
Fe741      Fe  0.75469311  0.94800978  0.20852609     1.65800
Fe742      Fe  0.75811136  0.54476926  0.16979819     1.73200
Fe743      Fe  0.83504058  0.50037756  0.20439900     1.54400
O744        O  0.82652305  0.00300968  0.25038763    -0.80100
O745        O  0.80258316  0.54697514  0.14130391    -0.78400
O746        O  0.78388285  0.94905133  0.25171618    -0.82600
O747        O  0.78968472  0.90558040  0.18874352    -0.77400
O748        O  0.83812770  0.57177163  0.20315681    -0.79200
O749        O  0.73556363  0.99971421  0.13914127    -0.81900
C750        C  0.81957728  0.89744248  0.20221999     0.98800
C751        C  0.80802720  0.97459850  0.26495238     1.06300
O752        O  0.78210753  0.99866881  0.19485458    -1.10900
O753        O  0.70947275  0.54566979  0.19501040    -0.73400
O754        O  0.71710037  0.98825709  0.22719409    -0.76900
O755        O  0.84091291  0.92955693  0.21006173    -0.77500
C756        C  0.69921856  0.52209864  0.21741434     0.97700
O757        O  0.72330892  0.94058160  0.16778210    -0.75500
O758        O  0.78007406  0.59373401  0.19768645    -0.80700
C759        C  0.82923745  0.52018200  0.13727998     1.00300
C760        C  0.81337941  0.60179522  0.20470437     1.06300
O761        O  0.84377534  0.49615429  0.15845401    -0.76300
C762        C  0.72215919  0.96103746  0.14239102     1.04600
Fe763      Fe  0.55890466  0.00007611  0.30051433     1.65800
Fe764      Fe  0.62479547  0.95737078  0.26016465     1.73200
Fe765      Fe  0.58034918  0.54766292  0.23420746     1.54400
O766        O  0.52462090  0.55249529  0.24251821    -0.80100
O767        O  0.66166823  0.00801602  0.25727416    -0.78400
O768        O  0.51299050  0.99512143  0.27335452    -0.82600
O769        O  0.55445957  0.57151952  0.30158011    -0.77400
O770        O  0.56690362  0.99977557  0.20319891    -0.79200
O771        O  0.63897761  0.95475421  0.30608908    -0.81900
C772        C  0.57299430  0.60260917  0.28927230     0.98800
C773        C  0.50267564  0.02563736  0.25495796     1.06300
O774        O  0.58781565  0.00159924  0.26504695    -1.10900
O775        O  0.58853140  0.90608996  0.26357502    -0.73400
O776        O  0.56227519  0.92838084  0.30522062    -0.76900
O777        O  0.59141721  0.59602693  0.26589495    -0.77500
C778        C  0.57469906  0.89716690  0.28849057     0.97700
O779        O  0.60409137  0.50543890  0.32840278    -0.75500
O780        O  0.61411438  0.95412123  0.21364285    -0.80700
C781        C  0.66425169  0.52894820  0.23267386     1.00300
C782        C  0.58603369  0.96582985  0.19760974     1.06300
O783        O  0.63581845  0.54676684  0.21983205    -0.76300
C784        C  0.63139550  0.97955293  0.32833872     1.04600
Fe785      Fe  0.83707700  0.75015708  0.20474611     1.65800
Fe786      Fe  0.77115567  0.70754491  0.24509231     1.73200
Fe787      Fe  0.81565813  0.79780829  0.27103918     1.54400
O788        O  0.87140128  0.80252921  0.26275344    -0.80100
O789        O  0.73434783  0.75827233  0.24793237    -0.78400
O790        O  0.88298389  0.74514811  0.23190926    -0.82600
O791        O  0.84158272  0.82159241  0.20366985    -0.77400
O792        O  0.82905191  0.74992583  0.30205591    -0.79200
O793        O  0.75700106  0.70487744  0.19917296    -0.81900
C794        C  0.82311857  0.85273827  0.21598858     0.98800
C795        C  0.89332042  0.77560585  0.25034010     1.06300
O796        O  0.80816832  0.75172989  0.24020860    -1.10900
O797        O  0.80736454  0.65619137  0.24169700    -0.73400
O798        O  0.83366543  0.67846500  0.20006201    -0.76900
O799        O  0.80466529  0.84619877  0.23935326    -0.77500
C800        C  0.82122382  0.64725947  0.21679068     0.97700
O801        O  0.79189386  0.75554307  0.17685034    -0.75500
O802        O  0.78181258  0.70432368  0.29162079    -0.80700
C803        C  0.73174599  0.77918298  0.27253618     1.00300
C804        C  0.80990831  0.71599766  0.30764546     1.06300
O805        O  0.76017411  0.79698701  0.28539400    -0.76300
C806        C  0.76461424  0.72961871  0.17690464     1.04600
C807        C  0.12290677  0.57487779  0.07443216     0.31600
C808        C  0.08143965  0.51175860  0.10178605     0.31600
C809        C  0.09740030  0.59201558  0.09782799    -0.04600
C810        C  0.09655797  0.54922839  0.05299470    -0.05400
C811        C  0.14365364  0.53710251  0.09050250    -0.05200
C812        C  0.07663101  0.56035908  0.11210241    -0.04600
C813        C  0.07468700  0.51602588  0.06645015    -0.05400
C814        C  0.12270060  0.50504039  0.10426991    -0.05200
C815        C  0.05905413  0.58249031  0.13469009    -0.30600
N816        N  0.06825835  0.62647198  0.13329209     0.15900
C817        C  0.09155578  0.63269324  0.11098464    -0.30600
H818        H  0.10551175  0.66390214  0.10652837     0.17800
C819        C  0.05445333  0.49671242  0.04234851    -0.29600
N820        N  0.06363522  0.51758279  0.01610150     0.14600
C821        C  0.08910205  0.54933607  0.02253295    -0.29600
C822        C  0.14624828  0.97608296  0.11936087    -0.29900
N823        N  0.18059970  0.98997586  0.11471076     0.15100
H824        H  0.13906112  0.94911990  0.13446178     0.17700
C825        C  0.17957495  0.52736489  0.09737250    -0.29900
H826        H  0.20297318  0.54768428  0.09222497     0.17700
H827        H  0.10185494  0.57039464  0.00599068     0.17700
H828        H  0.04315481  0.56745524  0.15210897     0.17800
H829        H  0.03520392  0.96934317  0.04369377     0.17700
Fe830      Fe  0.25202935  0.69709676  0.20952497     1.65800
Fe831      Fe  0.25545088  0.79213142  0.16937272     1.73200
Fe832      Fe  0.33291156  0.74651411  0.20213412     1.54400
O833        O  0.32702297  0.74896675  0.24857289    -0.80100
O834        O  0.29928712  0.79472697  0.14018186    -0.78400
O835        O  0.28385846  0.69610298  0.25138648    -0.82600
O836        O  0.28404698  0.65253080  0.18836732    -0.77400
O837        O  0.33642109  0.81782372  0.20102266    -0.79200
O838        O  0.23274307  0.74664668  0.13940003    -0.81900
C839        C  0.31517221  0.64391521  0.19957933     0.98800
C840        C  0.30908495  0.72083202  0.26380098     1.06300
O841        O  0.27984715  0.74609411  0.19420635    -1.10900
O842        O  0.20668842  0.79263202  0.19486266    -0.73400
O843        O  0.21803251  0.74009853  0.22992652    -0.76900
O844        O  0.33745599  0.67550374  0.20662658    -0.77500
C845        C  0.19795330  0.77094275  0.21860013     0.97700
O846        O  0.21751049  0.69127185  0.17023926    -0.75500
O847        O  0.27838303  0.84083669  0.19687961    -0.80700
C848        C  0.32539906  0.76745874  0.13545122     1.00300
C849        C  0.31206497  0.84832322  0.20287917     1.06300
O850        O  0.33980203  0.74248812  0.15607710    -0.76300
C851        C  0.21730255  0.70959211  0.14410268     1.04600
C852        C  0.27305847  0.82502672  0.43134489     0.31600
C853        C  0.31443854  0.76189321  0.40392090     0.31600
C854        C  0.29840089  0.84213000  0.40781578    -0.04600
C855        C  0.29956529  0.79949599  0.45272083    -0.05400
C856        C  0.25226298  0.78716375  0.41540865    -0.05200
C857        C  0.31912990  0.81046631  0.39351743    -0.04600
C858        C  0.32138205  0.76627660  0.43922586    -0.05400
C859        C  0.27317927  0.75509394  0.40160339    -0.05200
C860        C  0.33674780  0.83260011  0.37095601    -0.30600
N861        N  0.32760330  0.87659531  0.37239144     0.15900
C862        C  0.30429298  0.88282292  0.39468822    -0.30600
H863        H  0.29044462  0.91408181  0.39921271     0.17800
C864        C  0.34167461  0.74694674  0.46328601    -0.29600
N865        N  0.33259134  0.76783602  0.48955035     0.14600
C866        C  0.30712836  0.79961812  0.48316864    -0.29600
C867        C  0.24959568  0.72616481  0.38653411    -0.29900
N868        N  0.21525561  0.74008006  0.39121547     0.15100
H869        H  0.25675383  0.69926498  0.37137219     0.17700
C870        C  0.21632567  0.77745398  0.40857117    -0.29900
H871        H  0.19295430  0.79783637  0.41369886     0.17700
H872        H  0.29439522  0.82063885  0.49974311     0.17700
H873        H  0.35271078  0.81758259  0.35357207     0.17800
H874        H  0.36084843  0.71949913  0.46190932     0.17700
Fe875      Fe  0.14398342  0.94693732  0.29612940     1.65800
Fe876      Fe  0.14068586  0.54203346  0.33623752     1.73200
Fe877      Fe  0.06316355  0.49652622  0.30351688     1.54400
O878        O  0.06904750  0.99888780  0.25707127    -0.80100
O879        O  0.09688463  0.54471731  0.36546419    -0.78400
O880        O  0.11213046  0.94591674  0.25428042    -0.82600
O881        O  0.11192931  0.90242257  0.31730216    -0.77400
O882        O  0.05973866  0.56785765  0.30457411    -0.79200
O883        O  0.16339123  0.99657970  0.36621597    -0.81900
C884        C  0.08079387  0.89387621  0.30607677     0.98800
C885        C  0.08692832  0.97067649  0.24185723     1.06300
O886        O  0.11622513  0.99599779  0.31144292    -1.10900
O887        O  0.18940901  0.54243102  0.31072028    -0.73400
O888        O  0.17796814  0.98989244  0.27568334    -0.76900
O889        O  0.05854038  0.92551514  0.29905954    -0.77500
C890        C  0.19809144  0.52070554  0.28698679     0.97700
O891        O  0.17854115  0.94112890  0.33540715    -0.75500
O892        O  0.11780593  0.59073575  0.30871416    -0.80700
C893        C  0.07073347  0.51751372  0.37020912     1.00300
C894        C  0.08414171  0.59829705  0.30270313     1.06300
O895        O  0.05627454  0.49258277  0.34958595    -0.76300
C896        C  0.17881167  0.95951166  0.36152697     1.04600
Fe897      Fe  0.06172458  0.74659770  0.30533728     1.65800
Fe898      Fe  0.12401294  0.70345392  0.26158687     1.73200
Fe899      Fe  0.07874112  0.79375371  0.23772727     1.54400
O900        O  0.02387585  0.79950319  0.24876383    -0.80100
O901        O  0.16079115  0.75403270  0.25810964    -0.78400
O902        O  0.01365319  0.74317919  0.28085669    -0.82600
O903        O  0.05858994  0.81810158  0.30689660    -0.77400
O904        O  0.06265239  0.74571493  0.20736956    -0.79200
O905        O  0.14086393  0.69893696  0.30694771    -0.81900
C906        C  0.07607715  0.84884459  0.29322194     0.98800
C907        C  0.00252858  0.77375496  0.26281216     1.06300
O908        O  0.08781141  0.74785946  0.26834457    -1.10900
O909        O  0.08729525  0.65298238  0.26574247    -0.73400
O910        O  0.06449798  0.67473913  0.30904813    -0.76900
O911        O  0.09235043  0.84190014  0.26879217    -0.77500
C912        C  0.07531495  0.64375047  0.29130979     0.97700
O913        O  0.10884513  0.75054503  0.33102298    -0.75500
O914        O  0.11109354  0.70145584  0.21535081    -0.80700
C915        C  0.16255390  0.77565839  0.23369221     1.00300
C916        C  0.08156517  0.71195301  0.20090165     1.06300
O917        O  0.13345448  0.79252577  0.22121086    -0.76300
C918        C  0.13529682  0.72353956  0.32974489     1.04600
Fe919      Fe  0.33428969  0.99663024  0.20021533     1.65800
Fe920      Fe  0.27226952  0.95317443  0.24406296     1.73200
Fe921      Fe  0.31725951  0.54373485  0.26783067     1.54400
O922        O  0.37210812  0.54960749  0.25676244    -0.80100
O923        O  0.23527157  0.00349195  0.24755903    -0.78400
O924        O  0.38238895  0.99332228  0.22464458    -0.82600
O925        O  0.33735276  0.56813623  0.19866985    -0.77400
O926        O  0.33346507  0.99582198  0.29825170    -0.79200
O927        O  0.25538886  0.94855294  0.19871373    -0.81900
C928        C  0.31984821  0.59883908  0.21236296     0.98800
C929        C  0.39347817  0.52392004  0.24268461     1.06300
O930        O  0.30827416  0.99779272  0.23724694    -1.10900
O931        O  0.30922806  0.90296875  0.23990201    -0.73400
O932        O  0.33162084  0.92477177  0.19646677    -0.76900
O933        O  0.30352909  0.59181432  0.23675575    -0.77500
C934        C  0.32099249  0.89375103  0.21426089     0.97700
O935        O  0.28708946  0.50046636  0.17463006    -0.75500
O936        O  0.28519619  0.95128493  0.29028465    -0.80700
C937        C  0.23349260  0.52531024  0.27190033     1.00300
C938        C  0.31464208  0.96200636  0.30476472     1.06300
O939        O  0.26255416  0.54235600  0.28432479    -0.76300
C940        C  0.26075985  0.97328279  0.17593844     1.04600
C941        C  0.24867618  0.86118818  0.44068227    -0.16900
C942        C  0.22843857  0.89067804  0.43137804     0.07200
C943        C  0.21001943  0.91802837  0.40923536     0.09000
C944        C  0.19647766  0.93729002  0.38732541    -0.17800
C945        C  0.33067478  0.90774611  0.34931680    -0.11700
C946        C  0.32651514  0.93460368  0.32941816    -0.13200
C947        C  0.18519857  0.72764318  0.37301019    -0.11700
C948        C  0.16093095  0.72214890  0.35453041    -0.13200
C949        C  0.31823835  0.71645724  0.29635397    -0.16900
C950        C  0.32626663  0.71524593  0.32356081     0.07200
C951        C  0.33308677  0.71896272  0.35586475     0.09000
C952        C  0.33181975  0.73114067  0.38226813    -0.17800
C953        C  0.33827526  0.76383794  0.10508542    -0.16900
C954        C  0.34510033  0.75952903  0.07864472     0.07200
C955        C  0.34755386  0.75621654  0.04669997     0.09000
C956        C  0.34427173  0.75829038  0.51966788    -0.17800
C957        C  0.14733930  0.61101787  0.06513619    -0.16900
C958        C  0.16761075  0.64049547  0.07440644     0.07200
C959        C  0.18609641  0.66793167  0.09646279     0.09000
C960        C  0.19966827  0.68730373  0.11831530    -0.17800
C961        C  0.06968400  0.68438205  0.17633461    -0.11700
C962        C  0.06537697  0.65753844  0.15644255    -0.13200
C963        C  0.06402362  0.48099709  0.12341601    -0.16900
C964        C  0.06277543  0.46878666  0.14981571     0.07200
C965        C  0.06965509  0.46503829  0.18211323     0.09000
C966        C  0.07773321  0.96625375  0.20931246    -0.17800
C967        C  0.05787523  0.51391892  0.40058909    -0.16900
C968        C  0.05104164  0.50962090  0.42703285     0.07200
C969        C  0.04853411  0.50630243  0.45897868     0.09000
C970        C  0.05191470  0.50819242  0.98596941    -0.17800
C971        C  0.21067639  0.97739362  0.13283988    -0.11700
C972        C  0.23502379  0.97184130  0.15123391    -0.13400
C973        C  0.93152672  0.78042571  0.25617021    -0.11700
C974        C  0.96416732  0.77977604  0.25886098    -0.13200
C975        C  0.46447198  0.03061125  0.24920999    -0.11700
C976        C  0.43182876  0.53002150  0.24659189    -0.13200
C977        C  0.65315468  0.86474348  0.06159645    -0.16900
C978        C  0.67375845  0.89379623  0.07110719     0.07200
C979        C  0.69242548  0.92055978  0.09353165     0.09000
C980        C  0.70568666  0.93939352  0.11577016    -0.17800
C981        C  0.57567881  0.93924297  0.17225861    -0.11700
C982        C  0.57116839  0.91332037  0.15191188    -0.13200
C983        C  0.71632499  0.73531582  0.13257922    -0.11700
C984        C  0.74024859  0.72966038  0.15130879    -0.13200
C985        C  0.58048212  0.72071373  0.20748927    -0.16900
C986        C  0.57348368  0.72009720  0.18013265     0.07200
C987        C  0.56761545  0.72437305  0.14779363     0.09000
C988        C  0.56950661  0.73657483  0.12146191    -0.17800
C989        C  0.55494926  0.76024629  0.98456603    -0.16900
C990        C  0.54684694  0.75955473  0.45716038     0.07200
C991        C  0.54776360  0.76220089  0.42501671     0.09000
C992        C  0.55370411  0.76613441  0.39833727    -0.17800
C993        C  0.74300718  0.61481928  0.44364155    -0.16900
C994        C  0.72241128  0.64385373  0.43408254     0.07200
C995        C  0.70377911  0.67056450  0.41160364     0.09000
C996        C  0.69052948  0.68937514  0.38934855    -0.17800
C997        C  0.82028375  0.68938541  0.33297915    -0.11700
C998        C  0.82486430  0.66345476  0.35331369    -0.13200
C999        C  0.81545870  0.97078224  0.29773756    -0.16900
C1000       C  0.82250714  0.47016700  0.32508384     0.07200
C1001       C  0.82846245  0.47445566  0.35740864     0.09000
C1002       C  0.82662094  0.48667621  0.38373632    -0.17800
C1003       C  0.84229539  0.51601201  0.10694468    -0.16900
C1004       C  0.84820444  0.51202437  0.08026147     0.07200
C1005       C  0.84910895  0.50940110  0.04811341     0.09000
C1006       C  0.84122971  0.51011300  0.52060623    -0.17800
C1007       C  0.67979147  0.98549367  0.37258085    -0.11700
C1008       C  0.65583364  0.97973238  0.35389312    -0.13200
C1009       C  0.77043772  0.57895109  0.93342131     0.31600
C1010       C  0.81211801  0.51661100  0.90543423     0.31600
C1011       C  0.79600873  0.59669358  0.91026355    -0.04600
C1012       C  0.79686718  0.55288599  0.95465328    -0.05400
C1013       C  0.74984957  0.54144232  0.91693216    -0.05200
C1014       C  0.81683934  0.56541694  0.89568061    -0.04600
C1015       C  0.81887616  0.52017242  0.94079184    -0.05400
C1016       C  0.77086310  0.50981779  0.90280036    -0.05200
C1017       C  0.83394002  0.58789493  0.87304112    -0.30600
N1018       N  0.82438381  0.63170493  0.87464479     0.15900
C1019       C  0.80138891  0.63754441  0.89720188    -0.30600
H1020       H  0.78707778  0.66848042  0.90171853     0.17800
C1021       C  0.83982693  0.50101586  0.96451213    -0.29600
N1022       N  0.83090755  0.52135976  0.99100024     0.14600
C1023       C  0.80494084  0.55274363  0.98506689    -0.29600
C1024       C  0.74734222  0.98179379  0.88682532    -0.29900
N1025       N  0.71297350  0.99576428  0.89138520     0.15100
H1026       H  0.75460280  0.95559192  0.87116303     0.17700
C1027       C  0.71396167  0.53231571  0.90948056    -0.29900
H1028       H  0.69060139  0.55267391  0.91468553     0.17700
H1029       H  0.79247217  0.57358542  0.00188470     0.17700
H1030       H  0.84946533  0.57313015  0.85528214     0.17800
H1031       H  0.85956842  0.97426588  0.96273159     0.17700
Fe1032     Fe  0.64235959  0.69910490  0.79570303     1.65800
Fe1033     Fe  0.63916083  0.79452080  0.83561628     1.73200
Fe1034     Fe  0.56185513  0.75029929  0.80156264     1.54400
O1035       O  0.56906703  0.75310672  0.75534648    -0.80100
O1036       O  0.59502627  0.79687278  0.86438409    -0.78400
O1037       O  0.61167525  0.69937176  0.75319624    -0.82600
O1038       O  0.60878666  0.65581511  0.81629865    -0.77400
O1039       O  0.55886438  0.82167923  0.80292596    -0.79200
O1040       O  0.66156184  0.74874589  0.86571219    -0.81900
C1041       C  0.57825281  0.64749732  0.80392638     0.98800
C1042       C  0.58710513  0.72472778  0.74039298     1.06300
O1043       O  0.61485362  0.74893038  0.81036590    -1.10900
O1044       O  0.68773768  0.79533117  0.81022439    -0.73400
O1045       O  0.67814323  0.74080292  0.77614403    -0.76900
O1046       O  0.55650002  0.67939084  0.79639047    -0.77500
C1047       C  0.69706192  0.77316252  0.78688336     0.97700
O1048       O  0.67558277  0.69198576  0.83561499    -0.75500
O1049       O  0.61698348  0.84380955  0.80823165    -0.80700
C1050       C  0.56846452  0.77004180  0.86852957     1.00300
C1051       C  0.58357293  0.85181372  0.80153765     1.06300
O1052       O  0.55390297  0.74590096  0.84749414    -0.76300
C1053       C  0.67610424  0.71096425  0.86153279     1.04600
C1054       C  0.62563588  0.82885393  0.57182294     0.31600
C1055       C  0.58412192  0.76633576  0.59979354     0.31600
C1056       C  0.60012917  0.84645867  0.59507153    -0.04600
C1057       C  0.59917633  0.80283403  0.55060589    -0.05400
C1058       C  0.64631601  0.79131224  0.58819046    -0.05200
C1059       C  0.57937218  0.81509726  0.60964173    -0.04600
C1060       C  0.57725223  0.77002554  0.56445577    -0.05400
C1061       C  0.62539301  0.75959641  0.60232702    -0.05200
C1062       C  0.56209292  0.83753217  0.63220674    -0.30600
N1063       N  0.57148203  0.88139788  0.63056628     0.15900
C1064       C  0.59455079  0.88730675  0.60806801    -0.30600
H1065       H  0.60871064  0.91833432  0.60350138     0.17800
C1066       C  0.55627790  0.75090542  0.54074008    -0.29600
N1067       N  0.56510302  0.77137063  0.51426887     0.14600
C1068       C  0.59103638  0.80278668  0.52020647    -0.29600
C1069       C  0.64901682  0.73147059  0.61811395    -0.29900
N1070       N  0.68335288  0.74546877  0.61342537     0.15100
H1071       H  0.64185761  0.70517494  0.63374154     0.17700
C1072       C  0.68224012  0.78213170  0.59543384    -0.29900
H1073       H  0.70555793  0.80252555  0.59016958     0.17700
H1074       H  0.60344348  0.82370682  0.50339918     0.17700
H1075       H  0.54648228  0.82273621  0.64990063     0.17800
H1076       H  0.53659092  0.72409287  0.54250975     0.17700
Fe1077     Fe  0.75374802  0.94920226  0.70942286     1.65800
Fe1078     Fe  0.75690981  0.54452671  0.66943974     1.73200
Fe1079     Fe  0.83420725  0.50044319  0.70360558     1.54400
O1080       O  0.82692506  0.00342068  0.74980228    -0.80100
O1081       O  0.80111898  0.54683996  0.64073282    -0.78400
O1082       O  0.78439432  0.94960098  0.75197047    -0.82600
O1083       O  0.78739312  0.90595878  0.68885356    -0.77400
O1084       O  0.83715709  0.57182161  0.70212549    -0.79200
O1085       O  0.73459389  0.99870499  0.63935322    -0.81900
C1086       C  0.81790136  0.89764003  0.70126846     0.98800
C1087       C  0.80891175  0.97504070  0.76477318     1.06300
O1088       O  0.78121791  0.99902290  0.69475519    -1.10900
O1089       O  0.70823972  0.54530238  0.69475107    -0.73400
O1090       O  0.71788583  0.99087829  0.72890246    -0.76900
O1091       O  0.83960119  0.92954684  0.70888294    -0.77500
C1092       C  0.69889304  0.52313090  0.71808912     0.97700
O1093       O  0.72057011  0.94199347  0.66949279    -0.75500
O1094       O  0.77900935  0.59384958  0.69683099    -0.80700
C1095       C  0.82765569  0.51994671  0.63662419     1.00300
C1096       C  0.81241199  0.60191145  0.70352191     1.06300
O1097       O  0.84220329  0.49586568  0.65769772    -0.76300
C1098       C  0.72004405  0.96093980  0.64356262     1.04600
Fe1099     Fe  0.56049471  0.00021342  0.80266454     1.65800
Fe1100     Fe  0.62505581  0.95751032  0.76099001     1.73200
Fe1101     Fe  0.57985286  0.54730019  0.73560111     1.54400
O1102       O  0.52440817  0.55210596  0.74490675    -0.80100
O1103       O  0.66154702  0.00847911  0.75790793    -0.78400
O1104       O  0.51359626  0.99551352  0.77663468    -0.82600
O1105       O  0.55631335  0.57164346  0.80374719    -0.77400
O1106       O  0.56558975  0.99912221  0.70500760    -0.79200
O1107       O  0.64033796  0.95421852  0.80668434    -0.81900
C1108       C  0.57418764  0.60261864  0.79067358     0.98800
C1109       C  0.50282240  0.02553902  0.75801894     1.06300
O1110       O  0.58816610  0.00156958  0.76651526    -1.10900
O1111       O  0.58879944  0.90637510  0.76470009    -0.73400
O1112       O  0.56382351  0.92847716  0.80701617    -0.76900
O1113       O  0.59169372  0.59584952  0.76684249    -0.77500
C1114       C  0.57555737  0.89735255  0.78983563     0.97700
O1115       O  0.60661343  0.50535266  0.82964497    -0.75500
O1116       O  0.61360466  0.95454271  0.71456157    -0.80700
C1117       C  0.66378068  0.52934422  0.73325139     1.00300
C1118       C  0.58486344  0.96544364  0.69912618     1.06300
O1119       O  0.63504610  0.54649735  0.72041972    -0.76300
C1120       C  0.63366361  0.97909890  0.82910122     1.04600
Fe1121     Fe  0.83560935  0.75029401  0.70246679     1.65800
Fe1122     Fe  0.77076805  0.70771185  0.74393256     1.73200
Fe1123     Fe  0.81604239  0.79734634  0.76948838     1.54400
O1124       O  0.87152575  0.80210309  0.76034140    -0.80100
O1125       O  0.73434171  0.75877886  0.74696285    -0.78400
O1126       O  0.88239927  0.74551706  0.72864174    -0.82600
O1127       O  0.83980403  0.82174843  0.70141890    -0.77400
O1128       O  0.83011842  0.74908410  0.80005429    -0.79200
O1129       O  0.75569322  0.70446344  0.69820408    -0.81900
C1130       C  0.82193461  0.85273923  0.71449258     0.98800
C1131       C  0.89313702  0.77549776  0.74729813     1.06300
O1132       O  0.80776120  0.75168416  0.73852022    -1.10900
O1133       O  0.80695361  0.65649032  0.74030067    -0.73400
O1134       O  0.83226450  0.67855737  0.69811380    -0.76900
O1135       O  0.80436308  0.84596560  0.73828459    -0.77500
C1136       C  0.82036628  0.64745604  0.71523362     0.97700
O1137       O  0.78963609  0.75543001  0.67529743    -0.75500
O1138       O  0.78203006  0.70466728  0.79038649    -0.80700
C1139       C  0.73210180  0.77952545  0.77166511     1.00300
C1140       C  0.81073596  0.71548837  0.80589526     1.06300
O1141       O  0.76082585  0.79661094  0.78454294    -0.76300
C1142       C  0.76257161  0.72918737  0.67575955     1.04600
C1143       C  0.12455611  0.57550231  0.57415150     0.31600
C1144       C  0.08336923  0.51235665  0.60174510     0.31600
C1145       C  0.09928354  0.59260055  0.59772676    -0.04600
C1146       C  0.09798249  0.54989027  0.55289822    -0.05400
C1147       C  0.14547464  0.53772099  0.59009413    -0.05200
C1148       C  0.07864393  0.56092281  0.61211395    -0.04600
C1149       C  0.07628023  0.51668247  0.56650590    -0.05400
C1150       C  0.12463815  0.50563572  0.60398284    -0.05200
C1151       C  0.06080449  0.58313078  0.63449670    -0.30600
N1152       N  0.06974900  0.62716816  0.63287687     0.15900
C1153       C  0.09312791  0.63336648  0.61062826    -0.30600
H1154       H  0.10682012  0.66468641  0.60597854     0.17800
C1155       C  0.05577663  0.49734826  0.54261360    -0.29600
N1156       N  0.06462494  0.51823637  0.51630689     0.14600
C1157       C  0.09013187  0.55003111  0.52250131    -0.29600
C1158       C  0.14829144  0.97666503  0.61892163    -0.29900
N1159       N  0.18260556  0.99055616  0.61410379     0.15100
H1160       H  0.14120561  0.94971761  0.63407413     0.17700
C1161       C  0.18144813  0.52797868  0.59678180    -0.29900
H1162       H  0.20479345  0.54833234  0.59154581     0.17700
H1163       H  0.10269409  0.57105092  0.50583246     0.17700
H1164       H  0.04479595  0.56817082  0.65187469     0.17800
H1165       H  0.03661991  0.96990748  0.54411949     0.17700
Fe1166     Fe  0.25271721  0.69644925  0.70901864     1.65800
Fe1167     Fe  0.25627480  0.79239393  0.66971603     1.73200
Fe1168     Fe  0.33358227  0.74658337  0.70263567     1.54400
O1169       O  0.32700397  0.74868876  0.74897259    -0.80100
O1170       O  0.30023915  0.79490527  0.64057691    -0.78400
O1171       O  0.28389038  0.69557715  0.75120662    -0.82600
O1172       O  0.28551745  0.65263195  0.68796767    -0.77400
O1173       O  0.33715517  0.81791943  0.70171365    -0.79200
O1174       O  0.23338450  0.74749738  0.63939701    -0.81900
C1175       C  0.31631532  0.64396643  0.69978286     0.98800
C1176       C  0.30885098  0.72041403  0.76392414     1.06300
O1177       O  0.28050548  0.74602107  0.69435725    -1.10900
O1178       O  0.20758521  0.79295623  0.69527872    -0.73400
O1179       O  0.21767043  0.73843227  0.72921992    -0.76900
O1180       O  0.33839521  0.67559080  0.70716039    -0.77500
C1181       C  0.19833659  0.77045103  0.71853146     0.97700
O1182       O  0.21897312  0.69069141  0.66935881    -0.75500
O1183       O  0.27914548  0.84080561  0.69747599    -0.80700
C1184       C  0.32646937  0.76774872  0.63590070     1.00300
C1185       C  0.31277048  0.84836570  0.70358138     1.06300
O1186       O  0.34091702  0.74286676  0.65658339    -0.76300
C1187       C  0.21843142  0.70997579  0.64354685     1.04600
C1188       C  0.27134441  0.82565239  0.93165446     0.31600
C1189       C  0.31250245  0.76255100  0.90398265     0.31600
C1190       C  0.29662961  0.84279722  0.90810008    -0.04600
C1191       C  0.29790626  0.79995690  0.95287868    -0.05400
C1192       C  0.25041190  0.78792410  0.91567208    -0.05200
C1193       C  0.31725333  0.81113931  0.89368023    -0.04600
C1194       C  0.31959625  0.76677548  0.93922357    -0.05400
C1195       C  0.27123462  0.75586378  0.90174689    -0.05200
C1196       C  0.33513387  0.83338708  0.87134403    -0.30600
N1197       N  0.32622662  0.87742949  0.87301048     0.15900
C1198       C  0.30282912  0.88359692  0.89525152    -0.30600
H1199       H  0.28915887  0.91491995  0.89993006     0.17800
C1200       C  0.34012725  0.74738737  0.96307651    -0.29600
N1201       N  0.33130479  0.76821100  0.98940960     0.14600
C1202       C  0.30578652  0.80001778  0.98327168    -0.29600
C1203       C  0.24757362  0.72691551  0.88680738    -0.29900
N1204       N  0.21326600  0.74079828  0.89165431     0.15100
H1205       H  0.25464823  0.69999025  0.87163276     0.17700
C1206       C  0.21443381  0.77819251  0.90900097    -0.29900
H1207       H  0.19109214  0.79853476  0.91426552     0.17700
H1208       H  0.29325616  0.82101042  0.99997359     0.17700
H1209       H  0.35114460  0.81845239  0.85395711     0.17800
H1210       H  0.35930029  0.71996970  0.96152556     0.17700
Fe1211     Fe  0.14316706  0.94635142  0.79661226     1.65800
Fe1212     Fe  0.13978713  0.54234549  0.83586840     1.73200
Fe1213     Fe  0.06239087  0.49671912  0.80297926     1.54400
O1214       O  0.06895819  0.99869704  0.75663662    -0.80100
O1215       O  0.09585479  0.54501395  0.86503259    -0.78400
O1216       O  0.11194679  0.94542506  0.75445445    -0.82600
O1217       O  0.11031956  0.90267615  0.81773231    -0.77400
O1218       O  0.05894803  0.56807580  0.80383267    -0.79200
O1219       O  0.16261817  0.99741775  0.86619468    -0.81900
C1220       C  0.07952993  0.89405895  0.80588314     0.98800
C1221       C  0.08702704  0.97029899  0.74171662     1.06300
O1222       O  0.11546497  0.99601741  0.81125452    -1.10900
O1223       O  0.18844621  0.54272272  0.81028055    -0.73400
O1224       O  0.17820333  0.98824449  0.77633522    -0.76900
O1225       O  0.05747880  0.92572239  0.79851072    -0.77500
C1226       C  0.19762154  0.52018328  0.78702235     0.97700
O1227       O  0.17698260  0.94059250  0.83623881    -0.75500
O1228       O  0.11699659  0.59080419  0.80810083    -0.80700
C1229       C  0.06956019  0.51795923  0.86971668     1.00300
C1230       C  0.08338974  0.59845426  0.80197277     1.06300
O1231       O  0.05504745  0.49312360  0.84903884    -0.76300
C1232       C  0.17755246  0.95988494  0.86204780     1.04600
Fe1233     Fe  0.06066521  0.74671289  0.80436163     1.65800
Fe1234     Fe  0.12404874  0.70385688  0.76146699     1.73200
Fe1235     Fe  0.07917710  0.79437228  0.73726745     1.54400
O1236       O  0.02403848  0.80002146  0.74752015    -0.80100
O1237       O  0.16108087  0.75427990  0.75821985    -0.78400
O1238       O  0.01317431  0.74319990  0.77902698    -0.82600
O1239       O  0.05737912  0.81822261  0.80600128    -0.77400
O1240       O  0.06361164  0.74656900  0.70664719    -0.79200
O1241       O  0.14011891  0.69954216  0.80703164    -0.81900
C1242       C  0.07524689  0.84909072  0.79278569     0.98800
C1243       C  0.00239055  0.77382423  0.76088281     1.06300
O1244       O  0.08770827  0.74827528  0.76784959    -1.10900
O1245       O  0.08726464  0.65332026  0.76518812    -0.73400
O1246       O  0.06344467  0.67486218  0.80810035    -0.76900
O1247       O  0.09220380  0.84231929  0.76866356    -0.77500
C1248       C  0.07473331  0.64395626  0.79052805     0.97700
O1249       O  0.10718549  0.75062805  0.83081100    -0.75500
O1250       O  0.11171919  0.70186812  0.71514943    -0.80700
C1251       C  0.16307454  0.77583357  0.73378472     1.00300
C1252       C  0.08247292  0.71267810  0.70039080     1.06300
O1253       O  0.13414490  0.79311321  0.72129728    -0.76300
C1254       C  0.13386553  0.72390312  0.82981865     1.04600
Fe1255     Fe  0.33532335  0.99662508  0.70120056     1.65800
Fe1256     Fe  0.27215320  0.95346579  0.74415896     1.73200
Fe1257     Fe  0.31675689  0.54420774  0.76830169     1.54400
O1258       O  0.37188339  0.54998399  0.75804198    -0.80100
O1259       O  0.23491565  0.00364479  0.74743598    -0.78400
O1260       O  0.38283031  0.99321174  0.72651191    -0.82600
O1261       O  0.33851839  0.56814451  0.69958275    -0.77400
O1262       O  0.33241040  0.99652522  0.79898496    -0.79200
O1263       O  0.25605168  0.94910881  0.69859085    -0.81900
C1264       C  0.32060246  0.59895476  0.71280955     0.98800
C1265       C  0.39356669  0.52385183  0.74466064     1.06300
O1266       O  0.30832038  0.99807664  0.73774086    -1.10900
O1267       O  0.30915959  0.90317428  0.74042951    -0.73400
O1268       O  0.33265827  0.92477483  0.69741563    -0.76900
O1269       O  0.30361567  0.59209244  0.73689940    -0.77500
C1270       C  0.32152474  0.89383342  0.71502902     0.97700
O1271       O  0.28874628  0.50043850  0.67480959    -0.75500
O1272       O  0.28449242  0.95152303  0.79047223    -0.80700
C1273       C  0.23290503  0.52539263  0.77179458     1.00300
C1274       C  0.31362626  0.96259445  0.80529246     1.06300
O1275       O  0.26179933  0.54281424  0.78423838    -0.76300
C1276       C  0.26215083  0.97358535  0.67582119     1.04600
C1277       C  0.24713135  0.86184561  0.94121118    -0.16900
C1278       C  0.22694608  0.89151317  0.93212304     0.07200
C1279       C  0.20850489  0.91900130  0.91008838     0.09000
C1280       C  0.19499895  0.93814092  0.88812199    -0.17800
C1281       C  0.32939116  0.90866410  0.85002923    -0.11700
C1282       C  0.32526698  0.93541941  0.83008988    -0.13200
C1283       C  0.18315256  0.72831105  0.87352985    -0.11700
C1284       C  0.15903696  0.72266204  0.85493262    -0.13200
C1285       C  0.31743314  0.71605166  0.79653790    -0.16900
C1286       C  0.32504141  0.71507268  0.82380119     0.07200
C1287       C  0.33142284  0.71923691  0.85609972     0.09000
C1288       C  0.32989236  0.73174190  0.88239631    -0.17800
C1289       C  0.33936397  0.76410353  0.60549410    -0.16900
C1290       C  0.34609074  0.75975054  0.57900725     0.07200
C1291       C  0.34848366  0.75629198  0.54701636     0.09000
C1292       C  0.34322087  0.75844090  0.01939932    -0.17800
C1293       C  0.14876749  0.61170595  0.56460838    -0.16900
C1294       C  0.16895588  0.64141042  0.57362311     0.07200
C1295       C  0.18744570  0.66900693  0.59556097     0.09000
C1296       C  0.20098577  0.68822368  0.61747917    -0.17800
C1297       C  0.07078871  0.68525920  0.67573108    -0.11700
C1298       C  0.06661119  0.65839612  0.65586466    -0.13200
C1299       C  0.06595010  0.48149854  0.62328035    -0.16900
C1300       C  0.06439598  0.46895174  0.64956470     0.07200
C1301       C  0.07077387  0.46479752  0.68186123     0.09000
C1302       C  0.07839946  0.96583610  0.70911883    -0.17800
C1303       C  0.05668263  0.51434626  0.90013330    -0.16900
C1304       C  0.04999068  0.50994297  0.92662552     0.07200
C1305       C  0.04765604  0.50634566  0.95861760     0.09000
C1306       C  0.05279135  0.50850055  0.48628916    -0.17800
C1307       C  0.21272846  0.97801128  0.63220633    -0.11700
C1308       C  0.23689238  0.97233199  0.65076079    -0.13400
C1309       C  0.93143657  0.77997314  0.75293745    -0.11700
C1310       C  0.96406128  0.77943715  0.75606791    -0.13200
C1311       C  0.46451333  0.03010030  0.75250181    -0.11700
C1312       C  0.43188473  0.52956207  0.74944685    -0.13200
C1313       C  0.65039082  0.86478477  0.56261187    -0.16900
C1314       C  0.67103438  0.89353708  0.57250890     0.07200
C1315       C  0.68962633  0.91988427  0.59521178     0.09000
C1316       C  0.70299765  0.93868351  0.61742254    -0.17800
C1317       C  0.57404508  0.93836182  0.67411500    -0.11700
C1318       C  0.56946937  0.91219357  0.65390638    -0.13200
C1319       C  0.71343805  0.73385506  0.63187074    -0.11700
C1320       C  0.73764425  0.72870763  0.65046323    -0.13200
C1321       C  0.57874922  0.72077941  0.70769539    -0.16900
C1322       C  0.57123089  0.71995905  0.68039822     0.07200
C1323       C  0.56493835  0.72395808  0.64805129     0.09000
C1324       C  0.56656546  0.73604081  0.62165171    -0.17800
C1325       C  0.55230275  0.76196301  0.48439543    -0.16900
C1326       C  0.54890040  0.75811237  0.95743959     0.07200
C1327       C  0.54954386  0.76140024  0.92539249     0.09000
C1328       C  0.55549364  0.76584405  0.89880239    -0.17800
C1329       C  0.74559045  0.61480492  0.94261403    -0.16900
C1330       C  0.72493829  0.64353036  0.93267701     0.07200
C1331       C  0.70641051  0.66988502  0.90993292     0.09000
C1332       C  0.69310823  0.68870562  0.88769836    -0.17800
C1333       C  0.82141613  0.68842448  0.83094469    -0.11700
C1334       C  0.82611057  0.66238691  0.85121355    -0.13200
C1335       C  0.81727337  0.97117073  0.79748153    -0.16900
C1336       C  0.82486920  0.47040327  0.82477170     0.07200
C1337       C  0.83128740  0.47439999  0.85711285     0.09000
C1338       C  0.82972526  0.48642146  0.88353393    -0.17800
C1339       C  0.84063037  0.51562468  0.60636048    -0.16900
C1340       C  0.84659801  0.51113138  0.57977783     0.07200
C1341       C  0.84726523  0.50788629  0.54773065     0.09000
C1342       C  0.84367034  0.51187772  0.02087698    -0.17800
C1343       C  0.68297395  0.98409306  0.87285688    -0.11700
C1344       C  0.65877753  0.97878598  0.85427511    -0.13200
loop_ 
_geom_bond_atom_site_label_1 
_geom_bond_atom_site_label_2 
_geom_bond_distance 
_geom_bond_site_symmetry_2 
_ccdc_geom_bond_type 
C1            C3   1.513       .  S
C1            C5   1.515       .  S
C1            C4   1.529       .  S
C1          C321   1.472       .  S
C2            C6   1.527       .  S
C2            C8   1.524       .  S
C2            C7   1.569       .  S
C2          C330   1.487   1_545  S
C3           C11   1.364       .  A
C3            C6   1.382       .  A
C4           C15   1.361       .  A
C4            C7   1.420       .  A
C5           C19   1.369       .  A
C5            C8   1.383       .  A
C6            C9   1.376       .  A
C7           C13   1.390   1_545  A
C8          C688   1.371   1_545  A
C9           N10   1.353       .  A
C9           H22   1.082       .  S
N10          C11   1.345       .  A
N10         C326   1.383       .  S
C11          H12   1.083       .  S
C13          N14   1.368   1_565  A
C13         H695   1.081       .  S
N14          C15   1.351       .  A
N14         C334   1.405       .  S
C15          H21   1.084       .  S
C16         C680   1.371       .  A
C16          N17   1.350       .  A
C16          H18   1.083       .  S
N17         C691   1.349       .  A
N17         C335   1.384       .  S
C19         N689   1.349   1_545  A
C19          H20   1.082       .  S
H23         C685   1.081       .  S
Fe24         O40   2.104       .  S
Fe24         O30   2.026       .  S
Fe24         O37   2.029       .  S
Fe24         O29   2.144       .  S
Fe24         O35   1.925       .  S
Fe25         O28   2.104       .  S
Fe25         O32   2.053       .  S
Fe25         O36   2.144       .  S
Fe25         O41   2.050       .  S
Fe25         O35   1.948       .  S
Fe26         O44   2.071       .  S
Fe26         O31   2.130       .  S
Fe26         O38   2.133       .  S
Fe26         O27   2.070       .  S
Fe26         O35   1.968       .  S
O27          C34   1.276       .  A
O28          C42   1.280       .  A
O29          C34   1.287       .  A
O30          C33   1.248       .  A
O31          C43   1.278       .  A
O32          C45   1.263       .  A
C33          O38   1.274       .  A
C33         C100   1.467       .  S
C34         C313   1.465       .  S
O36          C39   1.282       .  A
O37          C39   1.267       .  A
C39         C131   1.488       .  S
O40          C45   1.275       .  A
O41          C43   1.269       .  A
C42          O44   1.275       .  A
C42         C320   1.447       .  S
C43         C106   1.478       .  S
C45         C324   1.449       .  S
C46          C48   1.513       .  S
C46          C50   1.515       .  S
C46          C49   1.529       .  S
C46         C305   1.472       .  S
C47          C51   1.527       .  S
C47          C53   1.524       .  S
C47          C52   1.569       .  S
C47         C316   1.487       .  S
C48          C56   1.364       .  A
C48          C51   1.382       .  A
C49          C60   1.361       .  A
C49          C52   1.420       .  A
C50          C64   1.369       .  A
C50          C53   1.383       .  A
C51          C54   1.376       .  A
C52          C58   1.390       .  A
C53          C61   1.371       .  A
C54          N55   1.353       .  A
C54          H67   1.082       .  S
N55          C56   1.345       .  A
N55         C310   1.383       .  S
C56          H57   1.083       .  S
C58          N59   1.368       .  A
C58          H68   1.081       .  S
N59          C60   1.351       .  A
N59         C317   1.405   1_554  S
C60          H66   1.084       .  S
C61          N62   1.350       .  A
C61          H63   1.083       .  S
N62          C64   1.349       .  A
N62         C311   1.384       .  S
C64          H65   1.082       .  S
Fe69         O85   2.103       .  S
Fe69         O75   2.026       .  S
Fe69         O82   2.029       .  S
Fe69         O74   2.145       .  S
Fe69         O80   1.924       .  S
Fe70         O73   2.104       .  S
Fe70         O81   2.144       .  S
Fe70         O86   2.050       .  S
Fe70        O749   2.053   1_545  S
Fe70        O752   1.948   1_545  S
Fe71         O89   2.071   1_545  S
Fe71         O76   2.130       .  S
Fe71        O755   2.133   1_545  S
Fe71        O744   2.069       .  S
Fe71        O752   1.968   1_545  S
O72        Fe743   2.069       .  S
O72          C79   1.276       .  A
O73          C87   1.280       .  A
O74          C79   1.288       .  A
O75          C78   1.247       .  A
O76          C88   1.278       .  A
O77        Fe742   2.053       .  S
O77          C90   1.263       .  A
C78          O83   1.274       .  A
C78         C122   1.467       .  S
C79         C327   1.465       .  S
O80        Fe742   1.948       .  S
O80        Fe743   1.968       .  S
O81          C84   1.283       .  A
O82         C756   1.267       .  A
O83        Fe743   2.133       .  S
C84         O754   1.267   1_545  A
C84         C109   1.488       .  S
O85          C90   1.275       .  A
O86          C88   1.269       .  A
C87          O89   1.275   1_545  A
C87         C331   1.447       .  S
C88         C128   1.479       .  S
C90         C308   1.448       .  S
Fe91        O104   2.148       .  S
Fe91         O96   2.028       .  S
Fe91        O779   2.026       .  S
Fe91        O769   2.134       .  S
Fe91        O102   1.930       .  S
Fe92         O95   2.033       .  S
Fe92         O99   2.072       .  S
Fe92        O103   2.035       .  S
Fe92        O108   2.076       .  S
Fe92        O102   1.909       .  S
Fe93        O111   2.157       .  S
Fe93        O105   2.036       .  S
Fe93         O94   2.097       .  S
Fe93        O770   2.022   1_545  S
Fe93        O774   1.943       .  S
O94         C773   1.276       .  A
O95         C781   1.259       .  A
O96         C101   1.265       .  A
O97        Fe763   2.134       .  S
O97         C100   1.283       .  A
O98        Fe765   2.022       .  S
O98         C110   1.261       .  A
O99         C112   1.269       .  A
C100        O105   1.273       .  A
C101        O766   1.276       .  A
C101        C303   1.420       .  S
O102       Fe765   1.943       .  S
O103        C106   1.260       .  A
O104        C106   1.283       .  A
O107       Fe763   2.026       .  S
O107        C784   1.263   1_545  A
O108        C110   1.272       .  A
C109        O111   1.279       .  A
C109        O767   1.259       .  A
C110        C309   1.409       .  S
C112        O779   1.263       .  A
C112        C336   1.409       .  S
Fe113       O129   2.026       .  S
Fe113       O119   2.134       .  S
Fe113       O126   2.148       .  S
Fe113       O118   2.028       .  S
Fe113       O124   1.930       .  S
Fe114       O117   2.033       .  S
Fe114       O121   2.071       .  S
Fe114       O125   2.035       .  S
Fe114       O130   2.076       .  S
Fe114       O124   1.909       .  S
Fe115       O133   2.157       .  S
Fe115       O120   2.022       .  S
Fe115       O127   2.036       .  S
Fe115       O116   2.097       .  S
Fe115       O124   1.943       .  S
O116        C123   1.276       .  A
O117        C131   1.259       .  A
O118        C123   1.265       .  A
O119        C122   1.283       .  A
O120        C132   1.261       .  A
O121        C134   1.269       .  A
C122        O127   1.273       .  A
C123        C301   1.420       .  S
O125        C128   1.260       .  A
O126        C128   1.283       .  A
O129        C134   1.263       .  A
O130        C132   1.272       .  A
C131        O133   1.279       .  A
C132        C325   1.409       .  S
C134        C312   1.409       .  S
C135        C137   1.512       .  S
C135        C139   1.516       .  S
C135        C138   1.527       .  S
C135        C285   1.470       .  S
C136        C140   1.530       .  S
C136        C142   1.525       .  S
C136        C141   1.574       .  S
C136        C291   1.487   1_545  S
C137        C145   1.364       .  A
C137        C140   1.381       .  A
C138        C149   1.360       .  A
C138        C141   1.420       .  A
C139        C153   1.369       .  A
C139        C142   1.383       .  A
C140        C143   1.379       .  A
C141        C147   1.394   1_545  A
C142        C822   1.372   1_545  A
C143        N144   1.354       .  A
C143        H156   1.082       .  S
N144        C145   1.345       .  A
N144        C290   1.386       .  S
C145        H146   1.083       .  S
C147        N148   1.370   1_565  A
C147        H829   1.081       .  S
N148        C149   1.350       .  A
N148        C298   1.408   1_554  S
C149        H155   1.084       .  S
C150        C814   1.372       .  A
C150        N151   1.350       .  A
C150        H152   1.083       .  S
N151        C825   1.350       .  A
N151        C299   1.385       .  S
C153        N823   1.350   1_545  A
C153        H154   1.082       .  S
H157        C819   1.081       .  S
Fe158       O174   2.108       .  S
Fe158       O164   2.027       .  S
Fe158       O171   2.026       .  S
Fe158       O163   2.141       .  S
Fe158       O169   1.920       .  S
Fe159       O162   2.105       .  S
Fe159       O166   2.045       .  S
Fe159       O170   2.154       .  S
Fe159       O175   2.048       .  S
Fe159       O169   1.948       .  S
Fe160       O178   2.063       .  S
Fe160       O165   2.128       .  S
Fe160       O172   2.129       .  S
Fe160       O161   2.072       .  S
Fe160       O169   1.961       .  S
O161        C168   1.275       .  A
O162        C176   1.279       .  A
O163        C168   1.286       .  A
O164        C167   1.250       .  A
O165        C177   1.279       .  A
O166        C179   1.261       .  A
C167        O172   1.275       .  A
C167        C256   1.463       .  S
C168        C277   1.467       .  S
O170        C173   1.283       .  A
O171        C173   1.266       .  A
C173        C243   1.491       .  S
O174        C179   1.276       .  A
O175        C177   1.271       .  A
C176        O178   1.272       .  A
C176        C281   1.445       .  S
C177        C262   1.475       .  S
C179        C288   1.445       .  S
C180        C182   1.512       .  S
C180        C184   1.516       .  S
C180        C183   1.527       .  S
C180        C269   1.470       .  S
C181        C185   1.529       .  S
C181        C187   1.525       .  S
C181        C186   1.573       .  S
C181        C280   1.487       .  S
C182        C190   1.364       .  A
C182        C185   1.381       .  A
C183        C194   1.360       .  A
C183        C186   1.420       .  A
C184        C198   1.369       .  A
C184        C187   1.383       .  A
C185        C188   1.379       .  A
C186        C192   1.394       .  A
C187        C195   1.372       .  A
C188        N189   1.354       .  A
C188        H201   1.082       .  S
N189        C190   1.345       .  A
N189        C273   1.386       .  S
C190        H191   1.083       .  S
C192        N193   1.370       .  A
C192        H202   1.081       .  S
N193        C194   1.350       .  A
N193        C284   1.408       .  S
C194        H200   1.084       .  S
C195        N196   1.350       .  A
C195        H197   1.083       .  S
N196        C198   1.351       .  A
N196        C275   1.385       .  S
C198        H199   1.082       .  S
Fe203       O219   2.109       .  S
Fe203       O209   2.027       .  S
Fe203       O216   2.025       .  S
Fe203       O208   2.141       .  S
Fe203       O214   1.920       .  S
Fe204       O207   2.106       .  S
Fe204       O215   2.154       .  S
Fe204       O220   2.047       .  S
Fe204       O883   2.044   1_545  S
Fe204       O886   1.948   1_545  S
Fe205       O223   2.064       .  S
Fe205       O210   2.128   1_565  S
Fe205       O889   2.129       .  S
Fe205       O878   2.072       .  S
Fe205       O886   1.961       .  S
O206       Fe877   2.072       .  S
O206        C213   1.275       .  A
O207        C221   1.279       .  A
O208        C213   1.286       .  A
O209        C212   1.250       .  A
O210        C222   1.279       .  A
O211       Fe876   2.044       .  S
O211        C224   1.261       .  A
C212        O217   1.275       .  A
C212        C234   1.463       .  S
C213        C294   1.467       .  S
O214       Fe876   1.948       .  S
O214       Fe877   1.961       .  S
O215        C218   1.283       .  A
O216        C890   1.266       .  A
O217       Fe877   2.129       .  S
C218        O888   1.266   1_545  A
C218        C265   1.491       .  S
O219        C224   1.276       .  A
O220        C222   1.271       .  A
C221        O223   1.272   1_545  A
C221        C295   1.445       .  S
C222        C240   1.475       .  S
C224        C272   1.445       .  S
Fe225       O241   2.027       .  S
Fe225       O231   2.133       .  S
Fe225       O238   2.148       .  S
Fe225       O230   2.029       .  S
Fe225       O236   1.929       .  S
Fe226       O229   2.032       .  S
Fe226       O233   2.074       .  S
Fe226       O237   2.031       .  S
Fe226       O242   2.076       .  S
Fe226       O236   1.906       .  S
Fe227       O245   2.165       .  S
Fe227       O232   2.030       .  S
Fe227       O239   2.031       .  S
Fe227       O228   2.098       .  S
Fe227       O236   1.940       .  S
O228        C235   1.276       .  A
O229        C243   1.260       .  A
O230        C235   1.265       .  A
O231        C234   1.284       .  A
O232        C244   1.261       .  A
O233        C246   1.269       .  A
C234        O239   1.272       .  A
C235        C302   1.421   1_455  S
O237        C240   1.259       .  A
O238        C240   1.284       .  A
O241        C246   1.263       .  A
O242        C244   1.271       .  A
C243        O245   1.281       .  A
C244        C289   1.413       .  S
C246        C276   1.411       .  S
Fe247       O260   2.148       .  S
Fe247       O252   2.028       .  S
Fe247       O935   2.027       .  S
Fe247       O925   2.133       .  S
Fe247       O258   1.929       .  S
Fe248       O251   2.031       .  S
Fe248       O255   2.074       .  S
Fe248       O259   2.031       .  S
Fe248       O264   2.075       .  S
Fe248       O258   1.906       .  S
Fe249       O267   2.164       .  S
Fe249       O261   2.030       .  S
Fe249       O250   2.098       .  S
Fe249       O926   2.030   1_545  S
Fe249       O930   1.940   1_545  S
O250        C257   1.276       .  A
O251        C937   1.260       .  A
O252        C929   1.265       .  A
O253       Fe919   2.133   1_545  S
O253        C256   1.283       .  A
O254       Fe921   2.030       .  S
O254        C266   1.261       .  A
O255        C268   1.269       .  A
C256        O261   1.272       .  A
C257        O924   1.265   1_545  A
C257        C304   1.421       .  S
O258       Fe921   1.940       .  S
O259        C262   1.259       .  A
O260        C262   1.284       .  A
O263       Fe919   2.027   1_545  S
O263        C940   1.263   1_545  A
O264        C266   1.271       .  A
C265        O267   1.281       .  A
C265        O923   1.260       .  A
C266        C274   1.413       .  S
C268        O935   1.263       .  A
C268        C300   1.411       .  S
C269        C270   1.210       .  T
C270        C271   1.420       .  S
C271        C272   1.212       .  T
C273        C274   1.193       .  T
C275        C276   1.191       .  T
C277        C278   1.224       .  T
C278        C279   1.441       .  S
C279        C280   1.223       .  T
C281        C282   1.211       .  T
C282        C283   1.420       .  S
C283        C620   1.210       .  T
C284        C619   1.212       .  T
C285        C286   1.210       .  T
C286        C287   1.420       .  S
C287        C288   1.212       .  T
C289        C290   1.193       .  T
C291        C292   1.224       .  T
C292        C293   1.441       .  S
C293        C966   1.224       .  T
C294        C965   1.224       .  T
C295        C296   1.211       .  T
C296        C297   1.421       .  S
C297        C634   1.211       .  T
C298        C633   1.212       .  T
C299        C300   1.191       .  T
C301        C302   1.197       .  T
C303        C976   1.197       .  T
C304        C975   1.197       .  T
C305        C306   1.211       .  T
C306        C307   1.422       .  S
C307        C308   1.213       .  T
C309        C310   1.190       .  T
C311        C312   1.190       .  T
C313        C314   1.224       .  T
C314        C315   1.440       .  S
C315        C316   1.223       .  T
C317        C654   1.210       .  T
C318        C653   1.212       .  T
C318        C319   1.423       .  S
C319        C320   1.213       .  T
C321        C322   1.211       .  T
C322        C323   1.422       .  S
C323        C324   1.213       .  T
C325        C326   1.190       .  T
C327       C1000   1.223       .  T
C328        C999   1.223       .  T
C328        C329   1.440       .  S
C329        C330   1.223       .  T
C331        C332   1.213       .  T
C332        C333   1.423       .  S
C333        C670   1.212       .  T
C334        C669   1.210       .  T
C335        C336   1.190       .  T
C337        C339   1.513       .  S
C337        C341   1.516       .  S
C337        C340   1.529       .  S
C337        C657   1.472       .  S
C338        C342   1.528       .  S
C338        C344   1.525       .  S
C338        C343   1.573       .  S
C338        C666   1.488   1_545  S
C339        C347   1.364       .  A
C339        C342   1.381       .  A
C340        C351   1.362       .  A
C340        C343   1.421       .  A
C341        C355   1.369       .  A
C341        C344   1.383       .  A
C342        C345   1.377       .  A
C343        C349   1.393       .  A
C344       C1024   1.372   1_545  A
C345        N346   1.353       .  A
C345        H358   1.082       .  S
N346        C347   1.344       .  A
N346        C662   1.383       .  S
C347        H348   1.083       .  S
C349        N350   1.369       .  A
C349       H1031   1.081   1_545  S
N350        C351   1.351       .  A
N350        C670   1.408   1_556  S
C351        H357   1.084   1_556  S
C352       C1016   1.372       .  A
C352        N353   1.350       .  A
C352        H354   1.083       .  S
N353       C1027   1.350       .  A
N353        C671   1.386       .  S
C355       N1025   1.350   1_545  A
C355        H356   1.082       .  S
H359       C1021   1.081       .  S
Fe360       O376   2.108       .  S
Fe360       O366   2.025       .  S
Fe360       O373   2.027       .  S
Fe360       O365   2.145       .  S
Fe360       O371   1.922       .  S
Fe361       O364   2.102       .  S
Fe361       O368   2.049       .  S
Fe361       O372   2.146       .  S
Fe361       O377   2.047       .  S
Fe361       O371   1.947       .  S
Fe362       O380   2.065       .  S
Fe362       O367   2.129       .  S
Fe362       O374   2.132       .  S
Fe362       O363   2.070       .  S
Fe362       O371   1.965       .  S
O363        C370   1.275       .  A
O364        C378   1.279       .  A
O365        C370   1.287       .  A
O366        C369   1.248       .  A
O367        C379   1.278       .  A
O368        C381   1.262       .  A
C369        O374   1.275       .  A
C369        C436   1.464       .  S
C370        C649   1.467       .  S
O372        C375   1.283       .  A
O373        C375   1.267       .  A
C375        C467   1.488       .  S
O376        C381   1.275       .  A
O377        C379   1.270       .  A
C378        O380   1.273       .  A
C378        C656   1.444       .  S
C379        C442   1.476       .  S
C381        C660   1.448       .  S
C382        C384   1.512       .  S
C382        C386   1.516       .  S
C382        C385   1.529       .  S
C382        C641   1.472       .  S
C383        C387   1.528       .  S
C383        C389   1.526       .  S
C383        C388   1.573       .  S
C383        C652   1.488       .  S
C384        C392   1.364       .  A
C384        C387   1.381       .  A
C385        C396   1.362       .  A
C385        C388   1.420       .  A
C386        C400   1.369       .  A
C386        C389   1.383       .  A
C387        C390   1.377       .  A
C388        C394   1.393       .  A
C389        C397   1.372       .  A
C390        N391   1.353       .  A
C390        H403   1.082       .  S
N391        C392   1.344       .  A
N391        C646   1.384       .  S
C392        H393   1.083       .  S
C394        N395   1.369       .  A
C394        H404   1.081       .  S
N395        C396   1.351       .  A
N395        C653   1.408       .  S
C396        H402   1.084       .  S
C397        N398   1.351       .  A
C397        H399   1.083       .  S
N398        C400   1.349       .  A
N398        C647   1.385       .  S
C400        H401   1.082       .  S
Fe405       O421   2.108       .  S
Fe405       O411   2.026       .  S
Fe405       O418   2.027       .  S
Fe405       O410   2.145       .  S
Fe405       O416   1.921       .  S
Fe406       O409   2.102       .  S
Fe406      O1085   2.049   1_545  S
Fe406       O417   2.147       .  S
Fe406       O422   2.047       .  S
Fe406      O1088   1.947   1_545  S
Fe407       O425   2.065   1_545  S
Fe407       O412   2.129       .  S
Fe407      O1091   2.132   1_545  S
Fe407      O1080   2.070       .  S
Fe407      O1088   1.965   1_545  S
O408      Fe1079   2.070       .  S
O408        C415   1.275       .  A
O409        C423   1.279       .  A
O410        C415   1.287       .  A
O411        C414   1.248       .  A
O412        C424   1.278       .  A
O413      Fe1078   2.049       .  S
O413        C426   1.262       .  A
C414        O419   1.275       .  A
C414        C458   1.464       .  S
C415        C663   1.467       .  S
O416      Fe1078   1.947       .  S
O416      Fe1079   1.965       .  S
O417        C420   1.283       .  A
O418       C1092   1.267       .  A
O419      Fe1079   2.132       .  S
C420       O1090   1.267   1_545  A
C420        C445   1.489       .  S
O421        C426   1.275       .  A
O422        C424   1.270       .  A
C423        O425   1.273   1_545  A
C423        C667   1.444       .  S
C424        C464   1.476       .  S
C426        C644   1.448       .  S
Fe427      O1115   2.030       .  S
Fe427      O1105   2.133       .  S
Fe427       O440   2.147       .  S
Fe427       O432   2.030       .  S
Fe427       O438   1.929       .  S
Fe428       O431   2.032       .  S
Fe428       O435   2.072       .  S
Fe428       O439   2.033       .  S
Fe428       O444   2.076       .  S
Fe428       O438   1.908       .  S
Fe429       O447   2.160       .  S
Fe429      O1106   2.023   1_545  S
Fe429       O441   2.031       .  S
Fe429       O430   2.096       .  S
Fe429      O1110   1.942       .  S
O430       C1109   1.276       .  A
O431       C1117   1.259       .  A
O432        C437   1.266       .  A
O433      Fe1099   2.133       .  S
O433        C436   1.283       .  A
O434      Fe1101   2.023       .  S
O434        C446   1.260       .  A
O435        C448   1.269       .  A
C436        O441   1.272       .  A
C437       O1102   1.276       .  A
C437        C639   1.421       .  S
O438      Fe1101   1.942       .  S
O439        C442   1.260       .  A
O440        C442   1.284       .  A
O443      Fe1099   2.030       .  S
O443       C1120   1.264   1_545  A
O444        C446   1.271       .  A
C445       O1103   1.259       .  A
C445        O447   1.280       .  A
C446        C645   1.410       .  S
C448       O1115   1.264       .  A
C448        C672   1.411       .  S
Fe449       O465   2.031       .  S
Fe449       O455   2.134       .  S
Fe449       O462   2.148       .  S
Fe449       O454   2.030       .  S
Fe449       O460   1.929       .  S
Fe450       O453   2.032       .  S
Fe450       O457   2.071       .  S
Fe450       O461   2.032       .  S
Fe450       O466   2.076       .  S
Fe450       O460   1.908       .  S
Fe451       O469   2.159       .  S
Fe451       O456   2.022       .  S
Fe451       O463   2.031       .  S
Fe451       O452   2.096       .  S
Fe451       O460   1.942       .  S
O452        C459   1.276       .  A
O453        C467   1.259       .  A
O454        C459   1.265       .  A
O455        C458   1.283       .  A
O456        C468   1.260       .  A
O457        C470   1.269       .  A
C458        O463   1.272       .  A
C459        C637   1.421       .  S
O461        C464   1.260       .  A
O462        C464   1.284       .  A
O465        C470   1.264       .  A
O466        C468   1.271       .  A
C467        O469   1.280       .  A
C468        C661   1.410       .  S
C470        C648   1.411       .  S
C471        C473   1.512       .  S
C471        C475   1.517       .  S
C471        C474   1.526       .  S
C471        C621   1.470       .  S
C472        C476   1.529       .  S
C472        C478   1.525       .  S
C472        C477   1.571       .  S
C472        C627   1.486   1_545  S
C473        C481   1.364       .  A
C473        C476   1.381       .  A
C474        C485   1.360       .  A
C474        C477   1.419       .  A
C475        C489   1.370       .  A
C475        C478   1.383       .  A
C476        C479   1.378       .  A
C477        C483   1.392   1_545  A
C478       C1158   1.371   1_545  A
C479        N480   1.354       .  A
C479        H492   1.082       .  S
N480        C481   1.345       .  A
N480        C626   1.385       .  S
C481        H482   1.083       .  S
C483        N484   1.369   1_565  A
C483       H1165   1.081       .  S
N484        C485   1.350       .  A
N484        C634   1.406       .  S
C485        H491   1.084       .  S
C486       C1150   1.371       .  A
C486        N487   1.350       .  A
C486        H488   1.084       .  S
N487       C1161   1.351       .  A
N487        C635   1.385       .  S
C489       N1159   1.351   1_545  A
C489        H490   1.082       .  S
H493       C1155   1.081       .  S
Fe494       O510   2.105       .  S
Fe494       O500   2.027       .  S
Fe494       O507   2.027       .  S
Fe494       O499   2.142       .  S
Fe494       O505   1.922       .  S
Fe495       O498   2.108       .  S
Fe495       O502   2.045       .  S
Fe495       O506   2.154       .  S
Fe495       O511   2.047       .  S
Fe495       O505   1.947       .  S
Fe496       O514   2.065       .  S
Fe496       O501   2.128       .  S
Fe496       O508   2.130       .  S
Fe496       O497   2.071       .  S
Fe496       O505   1.964       .  S
O497        C504   1.275       .  A
O498        C512   1.280       .  A
O499        C504   1.286       .  A
O500        C503   1.249       .  A
O501        C513   1.278       .  A
O502        C515   1.261       .  A
C503        O508   1.275       .  A
C503        C592   1.464       .  S
C504        C613   1.466       .  S
O506        C509   1.284       .  A
O507        C509   1.267       .  A
C509        C579   1.492       .  S
O510        C515   1.275       .  A
O511        C513   1.270       .  A
C512        O514   1.273       .  A
C512        C617   1.447       .  S
C513        C598   1.475       .  S
C515        C624   1.445       .  S
C516        C518   1.512       .  S
C516        C520   1.517       .  S
C516        C519   1.527       .  S
C516        C605   1.470       .  S
C517        C521   1.529       .  S
C517        C523   1.525       .  S
C517        C522   1.571       .  S
C517        C616   1.487       .  S
C518        C526   1.364       .  A
C518        C521   1.381       .  A
C519        C530   1.360       .  A
C519        C522   1.419       .  A
C520        C534   1.370       .  A
C520        C523   1.383       .  A
C521        C524   1.378       .  A
C522        C528   1.392       .  A
C523        C531   1.371       .  A
C524        N525   1.354       .  A
C524        H537   1.082       .  S
N525        C526   1.345       .  A
N525        C609   1.385       .  S
C526        H527   1.083       .  S
C528        N529   1.369       .  A
C528        H538   1.081       .  S
N529        C530   1.350       .  A
N529        C620   1.406   1_556  S
C530        H536   1.084       .  S
C531        N532   1.350       .  A
C531        H533   1.084       .  S
N532        C534   1.351       .  A
N532        C611   1.385       .  S
C534        H535   1.082       .  S
Fe539       O555   2.106       .  S
Fe539       O545   2.027       .  S
Fe539       O552   2.027       .  S
Fe539       O544   2.141       .  S
Fe539       O550   1.922       .  S
Fe540       O543   2.108       .  S
Fe540      O1219   2.045   1_545  S
Fe540       O551   2.153       .  S
Fe540       O556   2.047       .  S
Fe540      O1222   1.947   1_545  S
Fe541       O559   2.066       .  S
Fe541       O546   2.129   1_565  S
Fe541      O1225   2.130       .  S
Fe541      O1214   2.071       .  S
Fe541      O1222   1.964       .  S
O542      Fe1213   2.071       .  S
O542        C549   1.275       .  A
O543        C557   1.280       .  A
O544        C549   1.286       .  A
O545        C548   1.250       .  A
O546        C558   1.278       .  A
O547      Fe1212   2.045       .  S
O547        C560   1.261       .  A
C548        O553   1.275       .  A
C548        C570   1.464       .  S
C549        C630   1.466       .  S
O550      Fe1212   1.947       .  S
O550      Fe1213   1.964       .  S
O551        C554   1.284       .  A
O552       C1226   1.266       .  A
O553      Fe1213   2.130       .  S
C554       O1224   1.266   1_545  A
C554        C601   1.492       .  S
O555        C560   1.275       .  A
O556        C558   1.270       .  A
C557        O559   1.273   1_545  A
C557        C631   1.447       .  S
C558        C576   1.475       .  S
C560        C608   1.445       .  S
Fe561       O577   2.027       .  S
Fe561       O567   2.134       .  S
Fe561       O574   2.148       .  S
Fe561       O566   2.030       .  S
Fe561       O572   1.930       .  S
Fe562       O565   2.033       .  S
Fe562       O569   2.075       .  S
Fe562       O573   2.032       .  S
Fe562       O578   2.075       .  S
Fe562       O572   1.907       .  S
Fe563       O581   2.165       .  S
Fe563       O568   2.027       .  S
Fe563       O575   2.032       .  S
Fe563       O564   2.098       .  S
Fe563       O572   1.941       .  S
O564        C571   1.276       .  A
O565        C579   1.260       .  A
O566        C571   1.265       .  A
O567        C570   1.284       .  A
O568        C580   1.261       .  A
O569        C582   1.269       .  A
C570        O575   1.273       .  A
C571        C638   1.422   1_455  S
O573        C576   1.259       .  A
O574        C576   1.284       .  A
O577        C582   1.263       .  A
O578        C580   1.271       .  A
C579        O581   1.281       .  A
C580        C625   1.412       .  S
C582        C612   1.411       .  S
Fe583      O1271   2.027       .  S
Fe583      O1261   2.134       .  S
Fe583       O596   2.148       .  S
Fe583       O588   2.030       .  S
Fe583       O594   1.930       .  S
Fe584       O587   2.033       .  S
Fe584       O591   2.075       .  S
Fe584       O595   2.032       .  S
Fe584       O600   2.075       .  S
Fe584       O594   1.907       .  S
Fe585       O603   2.164       .  S
Fe585      O1262   2.027   1_545  S
Fe585       O597   2.031       .  S
Fe585       O586   2.098       .  S
Fe585      O1266   1.940   1_545  S
O586        C593   1.276       .  A
O587       C1273   1.260       .  A
O588       C1265   1.265       .  A
O589      Fe1255   2.134   1_545  S
O589        C592   1.284       .  A
O590      Fe1257   2.027       .  S
O590        C602   1.261       .  A
O591        C604   1.269       .  A
C592        O597   1.272       .  A
C593       O1260   1.265   1_545  A
C593        C640   1.422       .  S
O594      Fe1257   1.940       .  S
O595        C598   1.259       .  A
O596        C598   1.284       .  A
O599      Fe1255   2.027   1_545  S
O599       C1276   1.263   1_545  A
O600        C602   1.271       .  A
C601       O1259   1.260       .  A
C601        O603   1.281       .  A
C602        C610   1.412       .  S
C604       O1271   1.263       .  A
C604        C636   1.411       .  S
C605        C606   1.209       .  T
C606        C607   1.419       .  S
C607        C608   1.211       .  T
C609        C610   1.192       .  T
C611        C612   1.191       .  T
C613        C614   1.224       .  T
C614        C615   1.440       .  S
C615        C616   1.223       .  T
C617        C618   1.213       .  T
C618        C619   1.423       .  S
C621        C622   1.209       .  T
C622        C623   1.419       .  S
C623        C624   1.211       .  T
C625        C626   1.192       .  T
C627        C628   1.223       .  T
C628        C629   1.440       .  S
C629       C1302   1.224       .  T
C630       C1301   1.224       .  T
C631        C632   1.213       .  T
C632        C633   1.423       .  S
C635        C636   1.192       .  T
C637        C638   1.198       .  T
C639       C1312   1.198       .  T
C640       C1311   1.198       .  T
C641        C642   1.211       .  T
C642        C643   1.423       .  S
C643        C644   1.213       .  T
C645        C646   1.191       .  T
C647        C648   1.192       .  T
C649        C650   1.224       .  T
C650        C651   1.441       .  S
C651        C652   1.224       .  T
C654        C655   1.419       .  S
C655        C656   1.211       .  T
C657        C658   1.211       .  T
C658        C659   1.423       .  S
C659        C660   1.214       .  T
C661        C662   1.191       .  T
C663       C1336   1.225       .  T
C664       C1335   1.225       .  T
C664        C665   1.441       .  S
C665        C666   1.224       .  T
C667        C668   1.211       .  T
C668        C669   1.419       .  S
C671        C672   1.192       .  T
C673        C675   1.513       .  S
C673        C677   1.515       .  S
C673        C676   1.529       .  S
C673        C993   1.472       .  S
C674        C678   1.527       .  S
C674        C680   1.524       .  S
C674        C679   1.569       .  S
C674       C1002   1.487       .  S
C675        C683   1.364       .  A
C675        C678   1.382       .  A
C676        C687   1.361       .  A
C676        C679   1.420       .  A
C677        C691   1.369       .  A
C677        C680   1.383       .  A
C678        C681   1.376       .  A
C679        C685   1.390       .  A
C681        N682   1.353       .  A
C681        H694   1.082       .  S
N682        C683   1.345       .  A
N682        C998   1.383       .  S
C683        H684   1.083       .  S
C685        N686   1.368       .  A
N686        C687   1.351       .  A
N686       C1006   1.405       .  S
C687        H693   1.084       .  S
C688        N689   1.350       .  A
C688        H690   1.083       .  S
N689       C1007   1.384       .  S
C691        H692   1.082       .  S
Fe696       O712   2.104       .  S
Fe696       O702   2.026       .  S
Fe696       O709   2.029       .  S
Fe696       O701   2.144       .  S
Fe696       O707   1.925       .  S
Fe697       O700   2.104       .  S
Fe697       O704   2.053       .  S
Fe697       O708   2.144       .  S
Fe697       O713   2.050       .  S
Fe697       O707   1.948       .  S
Fe698       O716   2.071       .  S
Fe698       O703   2.130       .  S
Fe698       O710   2.133       .  S
Fe698       O699   2.070       .  S
Fe698       O707   1.968       .  S
O699        C706   1.276       .  A
O700        C714   1.280       .  A
O701        C706   1.287       .  A
O702        C705   1.248       .  A
O703        C715   1.278       .  A
O704        C717   1.263       .  A
C705        O710   1.274       .  A
C705        C772   1.467       .  S
C706        C985   1.465       .  S
O708        C711   1.282       .  A
O709        C711   1.267       .  A
C711        C803   1.488       .  S
O712        C717   1.275       .  A
O713        C715   1.269       .  A
C714        O716   1.275       .  A
C714        C992   1.447       .  S
C715        C778   1.478       .  S
C717        C996   1.449       .  S
C718        C720   1.513       .  S
C718        C722   1.515       .  S
C718        C721   1.529       .  S
C718        C977   1.472       .  S
C719        C723   1.527       .  S
C719        C725   1.524       .  S
C719        C724   1.569       .  S
C719        C988   1.487       .  S
C720        C728   1.364       .  A
C720        C723   1.382       .  A
C721        C732   1.361       .  A
C721        C724   1.420       .  A
C722        C736   1.369       .  A
C722        C725   1.383       .  A
C723        C726   1.376       .  A
C724        C730   1.390       .  A
C725        C733   1.371       .  A
C726        N727   1.353       .  A
C726        H739   1.082       .  S
N727        C728   1.345       .  A
N727        C982   1.383       .  S
C728        H729   1.083       .  S
C730        N731   1.368       .  A
C730        H740   1.081       .  S
N731        C732   1.351       .  A
N731        C989   1.405   1_554  S
C732        H738   1.084       .  S
C733        N734   1.350       .  A
C733        H735   1.083       .  S
N734        C736   1.349       .  A
N734        C983   1.384       .  S
C736        H737   1.082       .  S
Fe741       O757   2.103       .  S
Fe741       O747   2.026       .  S
Fe741       O754   2.029       .  S
Fe741       O746   2.145       .  S
Fe741       O752   1.924       .  S
Fe742       O745   2.104       .  S
Fe742       O753   2.144       .  S
Fe742       O758   2.050       .  S
Fe743       O761   2.071       .  S
Fe743       O748   2.130       .  S
O744        C751   1.276   1_545  A
O745        C759   1.280       .  A
O746        C751   1.288       .  A
O747        C750   1.247       .  A
O748        C760   1.278       .  A
O749        C762   1.263       .  A
C750        O755   1.274       .  A
C750        C794   1.467       .  S
C751        C999   1.465       .  S
O753        C756   1.283       .  A
C756        C781   1.488       .  S
O757        C762   1.275       .  A
O758        C760   1.269       .  A
C759        O761   1.275       .  A
C759       C1003   1.447       .  S
C760        C800   1.479       .  S
C762        C980   1.448       .  S
Fe763       O776   2.148   1_545  S
Fe763       O768   2.028   1_545  S
Fe763       O774   1.930       .  S
Fe764       O767   2.033   1_565  S
Fe764       O771   2.072       .  S
Fe764       O775   2.035       .  S
Fe764       O780   2.076       .  S
Fe764       O774   1.909   1_565  S
Fe765       O783   2.157       .  S
Fe765       O777   2.036       .  S
Fe765       O766   2.097       .  S
O768        C773   1.265   1_565  A
O769        C772   1.283       .  A
O770        C782   1.261       .  A
O771        C784   1.269       .  A
C772        O777   1.273       .  A
C773        C975   1.420       .  S
O775        C778   1.260       .  A
O776        C778   1.283       .  A
O780        C782   1.272       .  A
C781        O783   1.279       .  A
C782        C981   1.409       .  S
C784       C1008   1.409       .  S
Fe785       O801   2.026       .  S
Fe785       O791   2.134       .  S
Fe785       O798   2.148       .  S
Fe785       O790   2.028       .  S
Fe785       O796   1.930       .  S
Fe786       O789   2.033       .  S
Fe786       O793   2.071       .  S
Fe786       O797   2.035       .  S
Fe786       O802   2.076       .  S
Fe786       O796   1.909       .  S
Fe787       O805   2.157       .  S
Fe787       O792   2.022       .  S
Fe787       O799   2.036       .  S
Fe787       O788   2.097       .  S
Fe787       O796   1.943       .  S
O788        C795   1.276       .  A
O789        C803   1.259       .  A
O790        C795   1.265       .  A
O791        C794   1.283       .  A
O792        C804   1.261       .  A
O793        C806   1.269       .  A
C794        O799   1.273       .  A
C795        C973   1.420       .  S
O797        C800   1.260       .  A
O798        C800   1.283       .  A
O801        C806   1.263       .  A
O802        C804   1.272       .  A
C803        O805   1.279       .  A
C804        C997   1.409       .  S
C806        C984   1.409       .  S
C807        C809   1.512       .  S
C807        C811   1.516       .  S
C807        C810   1.527       .  S
C807        C957   1.470       .  S
C808        C812   1.530       .  S
C808        C814   1.525       .  S
C808        C813   1.574       .  S
C808        C963   1.487       .  S
C809        C817   1.364       .  A
C809        C812   1.381       .  A
C810        C821   1.360       .  A
C810        C813   1.420       .  A
C811        C825   1.369       .  A
C811        C814   1.383       .  A
C812        C815   1.379       .  A
C813        C819   1.394       .  A
C815        N816   1.354       .  A
C815        H828   1.082       .  S
N816        C817   1.345       .  A
N816        C962   1.386       .  S
C817        H818   1.083       .  S
C819        N820   1.370       .  A
N820        C821   1.350       .  A
N820        C970   1.408   1_554  S
C821        H827   1.084       .  S
C822        N823   1.350       .  A
C822        H824   1.083       .  S
N823        C971   1.385       .  S
C825        H826   1.082       .  S
Fe830       O846   2.108       .  S
Fe830       O836   2.027       .  S
Fe830       O843   2.026       .  S
Fe830       O835   2.141       .  S
Fe830       O841   1.920       .  S
Fe831       O834   2.105       .  S
Fe831       O838   2.045       .  S
Fe831       O842   2.154       .  S
Fe831       O847   2.048       .  S
Fe831       O841   1.948       .  S
Fe832       O850   2.063       .  S
Fe832       O837   2.128       .  S
Fe832       O844   2.129       .  S
Fe832       O833   2.072       .  S
Fe832       O841   1.961       .  S
O833        C840   1.275       .  A
O834        C848   1.279       .  A
O835        C840   1.286       .  A
O836        C839   1.250       .  A
O837        C849   1.279       .  A
O838        C851   1.261       .  A
C839        O844   1.275       .  A
C839        C928   1.463       .  S
C840        C949   1.467       .  S
O842        C845   1.283       .  A
O843        C845   1.266       .  A
C845        C915   1.491       .  S
O846        C851   1.276       .  A
O847        C849   1.271       .  A
C848        O850   1.272       .  A
C848        C953   1.445       .  S
C849        C934   1.475       .  S
C851        C960   1.445       .  S
C852        C854   1.512       .  S
C852        C856   1.516       .  S
C852        C855   1.527       .  S
C852        C941   1.470       .  S
C853        C857   1.529       .  S
C853        C859   1.525       .  S
C853        C858   1.573       .  S
C853        C952   1.487       .  S
C854        C862   1.364       .  A
C854        C857   1.381       .  A
C855        C866   1.360       .  A
C855        C858   1.420       .  A
C856        C870   1.369       .  A
C856        C859   1.383       .  A
C857        C860   1.379       .  A
C858        C864   1.394       .  A
C859        C867   1.372       .  A
C860        N861   1.354       .  A
C860        H873   1.082       .  S
N861        C862   1.345       .  A
N861        C945   1.386       .  S
C862        H863   1.083       .  S
C864        N865   1.370       .  A
C864        H874   1.081       .  S
N865        C866   1.350       .  A
N865        C956   1.408       .  S
C866        H872   1.084       .  S
C867        N868   1.350       .  A
C867        H869   1.083       .  S
N868        C870   1.351       .  A
N868        C947   1.385       .  S
C870        H871   1.082       .  S
Fe875       O891   2.109       .  S
Fe875       O881   2.027       .  S
Fe875       O888   2.025       .  S
Fe875       O880   2.141       .  S
Fe875       O886   1.920       .  S
Fe876       O879   2.106       .  S
Fe876       O887   2.154       .  S
Fe876       O892   2.047       .  S
Fe877       O895   2.064       .  S
Fe877       O882   2.128       .  S
O878        C885   1.275       .  A
O879        C893   1.279       .  A
O880        C885   1.286       .  A
O881        C884   1.250       .  A
O882        C894   1.279       .  A
O883        C896   1.261       .  A
C884        O889   1.275       .  A
C884        C906   1.463       .  S
C885        C966   1.467       .  S
O887        C890   1.283       .  A
C890        C937   1.491       .  S
O891        C896   1.276       .  A
O892        C894   1.271       .  A
C893        O895   1.272       .  A
C893        C967   1.445       .  S
C894        C912   1.475       .  S
C896        C944   1.445       .  S
Fe897       O913   2.027       .  S
Fe897       O903   2.133       .  S
Fe897       O910   2.148       .  S
Fe897       O902   2.029       .  S
Fe897       O908   1.929       .  S
Fe898       O901   2.032       .  S
Fe898       O905   2.074       .  S
Fe898       O909   2.031       .  S
Fe898       O914   2.076       .  S
Fe898       O908   1.906       .  S
Fe899       O917   2.165       .  S
Fe899       O904   2.030       .  S
Fe899       O911   2.031       .  S
Fe899       O900   2.098       .  S
Fe899       O908   1.940       .  S
O900        C907   1.276       .  A
O901        C915   1.260       .  A
O902        C907   1.265       .  A
O903        C906   1.284       .  A
O904        C916   1.261       .  A
O905        C918   1.269       .  A
C906        O911   1.272       .  A
C907        C974   1.421   1_455  S
O909        C912   1.259       .  A
O910        C912   1.284       .  A
O913        C918   1.263       .  A
O914        C916   1.271       .  A
C915        O917   1.281       .  A
C916        C961   1.413       .  S
C918        C948   1.411       .  S
Fe919       O932   2.148       .  S
Fe919       O924   2.028       .  S
Fe919       O930   1.929       .  S
Fe920       O923   2.031   1_565  S
Fe920       O927   2.074       .  S
Fe920       O931   2.031       .  S
Fe920       O936   2.075       .  S
Fe920       O930   1.906       .  S
Fe921       O939   2.164       .  S
Fe921       O933   2.030       .  S
Fe921       O922   2.098       .  S
O922        C929   1.276       .  A
O925        C928   1.283       .  A
O926        C938   1.261       .  A
O927        C940   1.269       .  A
C928        O933   1.272       .  A
C929        C976   1.421       .  S
O931        C934   1.259       .  A
O932        C934   1.284       .  A
O936        C938   1.271       .  A
C937        O939   1.281       .  A
C938        C946   1.413       .  S
C940        C972   1.411       .  S
C941        C942   1.210       .  T
C942        C943   1.420       .  S
C943        C944   1.212       .  T
C945        C946   1.193       .  T
C947        C948   1.191       .  T
C949        C950   1.224       .  T
C950        C951   1.441       .  S
C951        C952   1.223       .  T
C953        C954   1.211       .  T
C954        C955   1.420       .  S
C955       C1292   1.210       .  T
C956       C1291   1.212       .  T
C957        C958   1.210       .  T
C958        C959   1.420       .  S
C959        C960   1.212       .  T
C961        C962   1.193       .  T
C963        C964   1.224       .  T
C964        C965   1.441       .  S
C967        C968   1.211       .  T
C968        C969   1.421       .  S
C969       C1306   1.211       .  T
C970       C1305   1.212       .  T
C971        C972   1.191       .  T
C973        C974   1.197       .  T
C977        C978   1.211       .  T
C978        C979   1.422       .  S
C979        C980   1.213       .  T
C981        C982   1.190       .  T
C983        C984   1.190       .  T
C985        C986   1.224       .  T
C986        C987   1.440       .  S
C987        C988   1.223       .  T
C989       C1326   1.210       .  T
C990       C1325   1.212       .  T
C990        C991   1.423       .  S
C991        C992   1.213       .  T
C993        C994   1.211       .  T
C994        C995   1.422       .  S
C995        C996   1.213       .  T
C997        C998   1.190       .  T
C1000      C1001   1.440       .  S
C1001      C1002   1.223       .  T
C1003      C1004   1.213       .  T
C1004      C1005   1.423       .  S
C1005      C1342   1.212       .  T
C1006      C1341   1.210       .  T
C1007      C1008   1.190       .  T
C1009      C1011   1.513       .  S
C1009      C1013   1.516       .  S
C1009      C1012   1.529       .  S
C1009      C1329   1.472       .  S
C1010      C1014   1.528       .  S
C1010      C1016   1.525       .  S
C1010      C1015   1.573       .  S
C1010      C1338   1.488       .  S
C1011      C1019   1.364       .  A
C1011      C1014   1.381       .  A
C1012      C1023   1.362       .  A
C1012      C1015   1.421       .  A
C1013      C1027   1.369       .  A
C1013      C1016   1.383       .  A
C1014      C1017   1.377       .  A
C1015      C1021   1.393       .  A
C1017      N1018   1.353       .  A
C1017      H1030   1.082       .  S
N1018      C1019   1.344       .  A
N1018      C1334   1.383       .  S
C1019      H1020   1.083       .  S
C1021      N1022   1.369       .  A
N1022      C1023   1.351       .  A
N1022      C1342   1.408   1_556  S
C1023      H1029   1.084   1_556  S
C1024      N1025   1.350       .  A
C1024      H1026   1.083       .  S
N1025      C1343   1.386       .  S
C1027      H1028   1.082       .  S
Fe1032     O1048   2.108       .  S
Fe1032     O1038   2.025       .  S
Fe1032     O1045   2.027       .  S
Fe1032     O1037   2.145       .  S
Fe1032     O1043   1.922       .  S
Fe1033     O1036   2.102       .  S
Fe1033     O1040   2.049       .  S
Fe1033     O1044   2.146       .  S
Fe1033     O1049   2.047       .  S
Fe1033     O1043   1.947       .  S
Fe1034     O1052   2.065       .  S
Fe1034     O1039   2.129       .  S
Fe1034     O1046   2.132       .  S
Fe1034     O1035   2.070       .  S
Fe1034     O1043   1.965       .  S
O1035      C1042   1.275       .  A
O1036      C1050   1.279       .  A
O1037      C1042   1.287       .  A
O1038      C1041   1.248       .  A
O1039      C1051   1.278       .  A
O1040      C1053   1.262       .  A
C1041      O1046   1.275       .  A
C1041      C1108   1.464       .  S
C1042      C1321   1.467       .  S
O1044      C1047   1.283       .  A
O1045      C1047   1.267       .  A
C1047      C1139   1.488       .  S
O1048      C1053   1.275       .  A
O1049      C1051   1.270       .  A
C1050      O1052   1.273       .  A
C1050      C1328   1.444       .  S
C1051      C1114   1.476       .  S
C1053      C1332   1.448       .  S
C1054      C1056   1.512       .  S
C1054      C1058   1.516       .  S
C1054      C1057   1.529       .  S
C1054      C1313   1.472       .  S
C1055      C1059   1.528       .  S
C1055      C1061   1.526       .  S
C1055      C1060   1.573       .  S
C1055      C1324   1.488       .  S
C1056      C1064   1.364       .  A
C1056      C1059   1.381       .  A
C1057      C1068   1.362       .  A
C1057      C1060   1.420       .  A
C1058      C1072   1.369       .  A
C1058      C1061   1.383       .  A
C1059      C1062   1.377       .  A
C1060      C1066   1.393       .  A
C1061      C1069   1.372       .  A
C1062      N1063   1.353       .  A
C1062      H1075   1.082       .  S
N1063      C1064   1.344       .  A
N1063      C1318   1.384       .  S
C1064      H1065   1.083       .  S
C1066      N1067   1.369       .  A
C1066      H1076   1.081       .  S
N1067      C1068   1.351       .  A
N1067      C1325   1.408       .  S
C1068      H1074   1.084       .  S
C1069      N1070   1.351       .  A
C1069      H1071   1.083       .  S
N1070      C1072   1.349       .  A
N1070      C1319   1.385       .  S
C1072      H1073   1.082       .  S
Fe1077     O1093   2.108       .  S
Fe1077     O1083   2.026       .  S
Fe1077     O1090   2.027       .  S
Fe1077     O1082   2.145       .  S
Fe1077     O1088   1.921       .  S
Fe1078     O1081   2.102       .  S
Fe1078     O1089   2.147       .  S
Fe1078     O1094   2.047       .  S
Fe1079     O1097   2.065       .  S
Fe1079     O1084   2.129       .  S
O1080      C1087   1.275   1_545  A
O1081      C1095   1.279       .  A
O1082      C1087   1.287       .  A
O1083      C1086   1.248       .  A
O1084      C1096   1.278       .  A
O1085      C1098   1.262       .  A
C1086      O1091   1.275       .  A
C1086      C1130   1.464       .  S
C1087      C1335   1.467       .  S
O1089      C1092   1.283       .  A
C1092      C1117   1.489       .  S
O1093      C1098   1.275       .  A
O1094      C1096   1.270       .  A
C1095      O1097   1.273       .  A
C1095      C1339   1.444       .  S
C1096      C1136   1.476       .  S
C1098      C1316   1.448       .  S
Fe1099     O1112   2.147   1_545  S
Fe1099     O1104   2.030   1_545  S
Fe1099     O1110   1.929       .  S
Fe1100     O1103   2.032   1_565  S
Fe1100     O1107   2.072       .  S
Fe1100     O1111   2.033       .  S
Fe1100     O1116   2.076       .  S
Fe1100     O1110   1.908   1_565  S
Fe1101     O1119   2.160       .  S
Fe1101     O1113   2.031       .  S
Fe1101     O1102   2.096       .  S
O1104      C1109   1.266   1_565  A
O1105      C1108   1.283       .  A
O1106      C1118   1.260       .  A
O1107      C1120   1.269       .  A
C1108      O1113   1.272       .  A
C1109      C1311   1.421       .  S
O1111      C1114   1.260       .  A
O1112      C1114   1.284       .  A
O1116      C1118   1.271       .  A
C1117      O1119   1.280       .  A
C1118      C1317   1.410       .  S
C1120      C1344   1.411       .  S
Fe1121     O1137   2.031       .  S
Fe1121     O1127   2.134       .  S
Fe1121     O1134   2.148       .  S
Fe1121     O1126   2.030       .  S
Fe1121     O1132   1.929       .  S
Fe1122     O1125   2.032       .  S
Fe1122     O1129   2.071       .  S
Fe1122     O1133   2.032       .  S
Fe1122     O1138   2.076       .  S
Fe1122     O1132   1.908       .  S
Fe1123     O1141   2.159       .  S
Fe1123     O1128   2.022       .  S
Fe1123     O1135   2.031       .  S
Fe1123     O1124   2.096       .  S
Fe1123     O1132   1.942       .  S
O1124      C1131   1.276       .  A
O1125      C1139   1.259       .  A
O1126      C1131   1.265       .  A
O1127      C1130   1.283       .  A
O1128      C1140   1.260       .  A
O1129      C1142   1.269       .  A
C1130      O1135   1.272       .  A
C1131      C1309   1.421       .  S
O1133      C1136   1.260       .  A
O1134      C1136   1.284       .  A
O1137      C1142   1.264       .  A
O1138      C1140   1.271       .  A
C1139      O1141   1.280       .  A
C1140      C1333   1.410       .  S
C1142      C1320   1.411       .  S
C1143      C1145   1.512       .  S
C1143      C1147   1.517       .  S
C1143      C1146   1.526       .  S
C1143      C1293   1.470       .  S
C1144      C1148   1.529       .  S
C1144      C1150   1.525       .  S
C1144      C1149   1.571       .  S
C1144      C1299   1.486       .  S
C1145      C1153   1.364       .  A
C1145      C1148   1.381       .  A
C1146      C1157   1.360       .  A
C1146      C1149   1.419       .  A
C1147      C1161   1.370       .  A
C1147      C1150   1.383       .  A
C1148      C1151   1.378       .  A
C1149      C1155   1.392       .  A
C1151      N1152   1.354       .  A
C1151      H1164   1.082       .  S
N1152      C1153   1.345       .  A
N1152      C1298   1.385       .  S
C1153      H1154   1.083       .  S
C1155      N1156   1.369       .  A
N1156      C1157   1.350       .  A
N1156      C1306   1.406       .  S
C1157      H1163   1.084       .  S
C1158      N1159   1.350       .  A
C1158      H1160   1.084       .  S
N1159      C1307   1.385       .  S
C1161      H1162   1.082       .  S
Fe1166     O1182   2.105       .  S
Fe1166     O1172   2.027       .  S
Fe1166     O1179   2.027       .  S
Fe1166     O1171   2.142       .  S
Fe1166     O1177   1.922       .  S
Fe1167     O1170   2.108       .  S
Fe1167     O1174   2.045       .  S
Fe1167     O1178   2.154       .  S
Fe1167     O1183   2.047       .  S
Fe1167     O1177   1.947       .  S
Fe1168     O1186   2.065       .  S
Fe1168     O1173   2.128       .  S
Fe1168     O1180   2.130       .  S
Fe1168     O1169   2.071       .  S
Fe1168     O1177   1.964       .  S
O1169      C1176   1.275       .  A
O1170      C1184   1.280       .  A
O1171      C1176   1.286       .  A
O1172      C1175   1.249       .  A
O1173      C1185   1.278       .  A
O1174      C1187   1.261       .  A
C1175      O1180   1.275       .  A
C1175      C1264   1.464       .  S
C1176      C1285   1.466       .  S
O1178      C1181   1.284       .  A
O1179      C1181   1.267       .  A
C1181      C1251   1.492       .  S
O1182      C1187   1.275       .  A
O1183      C1185   1.270       .  A
C1184      O1186   1.273       .  A
C1184      C1289   1.447       .  S
C1185      C1270   1.475       .  S
C1187      C1296   1.445       .  S
C1188      C1190   1.512       .  S
C1188      C1192   1.517       .  S
C1188      C1191   1.527       .  S
C1188      C1277   1.470       .  S
C1189      C1193   1.529       .  S
C1189      C1195   1.525       .  S
C1189      C1194   1.571       .  S
C1189      C1288   1.487       .  S
C1190      C1198   1.364       .  A
C1190      C1193   1.381       .  A
C1191      C1202   1.360       .  A
C1191      C1194   1.419       .  A
C1192      C1206   1.370       .  A
C1192      C1195   1.383       .  A
C1193      C1196   1.378       .  A
C1194      C1200   1.392       .  A
C1195      C1203   1.371       .  A
C1196      N1197   1.354       .  A
C1196      H1209   1.082       .  S
N1197      C1198   1.345       .  A
N1197      C1281   1.385       .  S
C1198      H1199   1.083       .  S
C1200      N1201   1.369       .  A
C1200      H1210   1.081       .  S
N1201      C1202   1.350       .  A
N1201      C1292   1.406   1_556  S
C1202      H1208   1.084       .  S
C1203      N1204   1.350       .  A
C1203      H1205   1.084       .  S
N1204      C1206   1.351       .  A
N1204      C1283   1.385       .  S
C1206      H1207   1.082       .  S
Fe1211     O1227   2.106       .  S
Fe1211     O1217   2.027       .  S
Fe1211     O1224   2.027       .  S
Fe1211     O1216   2.141       .  S
Fe1211     O1222   1.922       .  S
Fe1212     O1215   2.108       .  S
Fe1212     O1223   2.153       .  S
Fe1212     O1228   2.047       .  S
Fe1213     O1231   2.066       .  S
Fe1213     O1218   2.129       .  S
O1214      C1221   1.275       .  A
O1215      C1229   1.280       .  A
O1216      C1221   1.286       .  A
O1217      C1220   1.250       .  A
O1218      C1230   1.278       .  A
O1219      C1232   1.261       .  A
C1220      O1225   1.275       .  A
C1220      C1242   1.464       .  S
C1221      C1302   1.466       .  S
O1223      C1226   1.284       .  A
C1226      C1273   1.492       .  S
O1227      C1232   1.275       .  A
O1228      C1230   1.270       .  A
C1229      O1231   1.273       .  A
C1229      C1303   1.447       .  S
C1230      C1248   1.475       .  S
C1232      C1280   1.445       .  S
Fe1233     O1249   2.027       .  S
Fe1233     O1239   2.134       .  S
Fe1233     O1246   2.148       .  S
Fe1233     O1238   2.030       .  S
Fe1233     O1244   1.930       .  S
Fe1234     O1237   2.033       .  S
Fe1234     O1241   2.075       .  S
Fe1234     O1245   2.032       .  S
Fe1234     O1250   2.075       .  S
Fe1234     O1244   1.907       .  S
Fe1235     O1253   2.165       .  S
Fe1235     O1240   2.027       .  S
Fe1235     O1247   2.032       .  S
Fe1235     O1236   2.098       .  S
Fe1235     O1244   1.941       .  S
O1236      C1243   1.276       .  A
O1237      C1251   1.260       .  A
O1238      C1243   1.265       .  A
O1239      C1242   1.284       .  A
O1240      C1252   1.261       .  A
O1241      C1254   1.269       .  A
C1242      O1247   1.273       .  A
C1243      C1310   1.422   1_455  S
O1245      C1248   1.259       .  A
O1246      C1248   1.284       .  A
O1249      C1254   1.263       .  A
O1250      C1252   1.271       .  A
C1251      O1253   1.281       .  A
C1252      C1297   1.412       .  S
C1254      C1284   1.411       .  S
Fe1255     O1268   2.148       .  S
Fe1255     O1260   2.030       .  S
Fe1255     O1266   1.930       .  S
Fe1256     O1259   2.033   1_565  S
Fe1256     O1263   2.075       .  S
Fe1256     O1267   2.032       .  S
Fe1256     O1272   2.075       .  S
Fe1256     O1266   1.907       .  S
Fe1257     O1275   2.164       .  S
Fe1257     O1269   2.031       .  S
Fe1257     O1258   2.098       .  S
O1258      C1265   1.276       .  A
O1261      C1264   1.284       .  A
O1262      C1274   1.261       .  A
O1263      C1276   1.269       .  A
C1264      O1269   1.272       .  A
C1265      C1312   1.422       .  S
O1267      C1270   1.259       .  A
O1268      C1270   1.284       .  A
O1272      C1274   1.271       .  A
C1273      O1275   1.281       .  A
C1274      C1282   1.412       .  S
C1276      C1308   1.411       .  S
C1277      C1278   1.209       .  T
C1278      C1279   1.419       .  S
C1279      C1280   1.211       .  T
C1281      C1282   1.192       .  T
C1283      C1284   1.191       .  T
C1285      C1286   1.224       .  T
C1286      C1287   1.440       .  S
C1287      C1288   1.223       .  T
C1289      C1290   1.213       .  T
C1290      C1291   1.423       .  S
C1293      C1294   1.209       .  T
C1294      C1295   1.419       .  S
C1295      C1296   1.211       .  T
C1297      C1298   1.192       .  T
C1299      C1300   1.223       .  T
C1300      C1301   1.440       .  S
C1303      C1304   1.213       .  T
C1304      C1305   1.423       .  S
C1307      C1308   1.192       .  T
C1309      C1310   1.198       .  T
C1313      C1314   1.211       .  T
C1314      C1315   1.423       .  S
C1315      C1316   1.213       .  T
C1317      C1318   1.191       .  T
C1319      C1320   1.192       .  T
C1321      C1322   1.224       .  T
C1322      C1323   1.441       .  S
C1323      C1324   1.224       .  T
C1326      C1327   1.419       .  S
C1327      C1328   1.211       .  T
C1329      C1330   1.211       .  T
C1330      C1331   1.423       .  S
C1331      C1332   1.214       .  T
C1333      C1334   1.191       .  T
C1336      C1337   1.441       .  S
C1337      C1338   1.224       .  T
C1339      C1340   1.211       .  T
C1340      C1341   1.419       .  S
C1343      C1344   1.192       .  T
