geometry optimzed in LAMMPS
_audit_creation_date              2020-11-30 
_audit_creation_method            'lammps2cif' 
_symmetry_space_group_name_H-M    'P1' 
_symmetry_Int_Tables_number       1 
_symmetry_cell_setting            triclinic 
loop_ 
_symmetry_equiv_pos_as_xyz 
  x,y,z 
_cell_length_a                    54.39114835556016 
_cell_length_b                    54.33619248280237 
_cell_length_c                    54.173991706457905 
_cell_angle_alpha                 89.99537181995139 
_cell_angle_beta                  90.08174668406524 
_cell_angle_gamma                 89.99341990564265 
loop_ 
_atom_site_label 
_atom_site_type_symbol 
_atom_site_fract_x 
_atom_site_fract_y 
_atom_site_fract_z 
_atom_site_charge 
N1          N  0.71198913  0.76576335  0.69553890    -0.27220
N2          N  0.69647369  0.76741042  0.71425305    -0.35080
C3          C  0.67840574  0.78324395  0.70827175     0.01120
C4          C  0.68272676  0.79170569  0.68465633     0.07150
C5          C  0.70406471  0.78028614  0.67706630    -0.05950
H6          H  0.66254547  0.78711887  0.71965893     0.07810
H7          H  0.71266381  0.78165226  0.65912219     0.09010
Cu8        Cu  0.69753252  0.74445786  0.74479953     0.44170
Cu9        Cu  0.74124120  0.74141078  0.69433332     0.41990
Cu10       Cu  0.73769377  0.69173721  0.73805273     0.43880
N11         N  0.69580455  0.71355085  0.76715027    -0.34610
N12         N  0.70968520  0.69384511  0.76379099    -0.28860
C13         C  0.70130252  0.67549300  0.77813512    -0.04960
C14         C  0.68146964  0.68421418  0.79134598     0.07260
C15         C  0.67846317  0.70837330  0.78405669     0.01050
H16         H  0.70855603  0.65695191  0.77825402     0.08700
H17         H  0.66372847  0.72068237  0.78929083     0.07780
N18         N  0.76295361  0.69287695  0.70954212    -0.36050
N19         N  0.76476337  0.71147207  0.69390524    -0.28230
C20         C  0.78166033  0.70596310  0.67666770    -0.03470
C21         C  0.79072005  0.68277294  0.68170454     0.05140
C22         C  0.77845040  0.67491613  0.70253810     0.03230
H23         H  0.78591401  0.71733884  0.66084801     0.08340
H24         H  0.77995287  0.65712601  0.71138415     0.07170
N25         N  0.24334274  0.69499473  0.29716116    -0.27220
N26         N  0.24149628  0.71376137  0.31260604    -0.35080
C27         C  0.22542110  0.70792737  0.33052764     0.01120
C28         C  0.21704354  0.68433940  0.32620735     0.07150
C29         C  0.22876438  0.67661750  0.30501924    -0.05950
H30         H  0.22137333  0.71936864  0.34635298     0.07810
H31         H  0.22755238  0.65865580  0.29648602     0.09010
Cu32       Cu  0.26451925  0.74417012  0.31171158     0.44170
Cu33       Cu  0.26790418  0.69365856  0.26805525     0.41990
Cu34       Cu  0.31606012  0.73897918  0.26971384     0.43880
N35         N  0.29518874  0.76681131  0.31300699    -0.34610
N36         N  0.31433537  0.76424040  0.29819814    -0.28860
C37         C  0.33267601  0.77880400  0.30616659    -0.04960
C38         C  0.32455316  0.79127366  0.32676247     0.07260
C39         C  0.30075049  0.78335753  0.33062699     0.01050
H40         H  0.35085352  0.77953273  0.29811557     0.08700
H41         H  0.28895139  0.78804012  0.34598733     0.07780
N42         N  0.31557342  0.70979424  0.24523844    -0.36050
N43         N  0.29764585  0.69338776  0.24430181    -0.28230
C44         C  0.30367767  0.67570591  0.22804048    -0.03470
C45         C  0.32649824  0.68128585  0.21847524     0.05140
C46         C  0.33359611  0.70291287  0.22974767     0.03230
H47         H  0.29289371  0.65934818  0.22450505     0.08340
H48         H  0.35095819  0.71239269  0.22764052     0.07170
N49         N  0.71246388  0.31464837  0.76488696    -0.27220
N50         N  0.69598261  0.29679653  0.76613381    -0.35080
C51         C  0.67827886  0.30332628  0.78215383     0.01120
C52         C  0.68399108  0.32632474  0.79130355     0.07150
C53         C  0.70568062  0.33302824  0.78001988    -0.05950
H54         H  0.66185448  0.29271856  0.78583160     0.07810
H55         H  0.71521173  0.35041812  0.78176781     0.09010
Cu56       Cu  0.69601411  0.26644665  0.74303615     0.44170
Cu57       Cu  0.74136395  0.31503512  0.74014963     0.41990
Cu58       Cu  0.74184267  0.26665869  0.69453452     0.43880
N59         N  0.69564394  0.24249442  0.71332751    -0.34610
N60         N  0.71213141  0.24286976  0.69540327    -0.28860
C61         C  0.70485048  0.22755474  0.67731776    -0.04960
C62         C  0.68288666  0.21700203  0.68435246     0.07260
C63         C  0.67752700  0.22679328  0.70720786     0.01050
H64         H  0.71429017  0.22512768  0.65992151     0.08700
H65         H  0.66103650  0.22381748  0.71794606     0.07780
N66         N  0.76597229  0.29610336  0.69422435    -0.36050
N67         N  0.76548279  0.31404937  0.71070417    -0.28230
C68         C  0.78105595  0.33191257  0.70363363    -0.03470
C69         C  0.79193144  0.32469020  0.68182172     0.05140
C70         C  0.78202403  0.30197215  0.67631307     0.03230
H71         H  0.78344619  0.34928828  0.71308887     0.08340
H72         H  0.78515922  0.29117822  0.65983396     0.07170
N73         N  0.24176135  0.29437100  0.69566652    -0.27220
N74         N  0.24242509  0.31237412  0.71209489    -0.35080
C75         C  0.22765659  0.33073229  0.70448285     0.01120
C76         C  0.21718162  0.32384234  0.68233208     0.07150
C77         C  0.22642181  0.30074363  0.67723940    -0.05950
H78         H  0.22555301  0.34819557  0.71383807     0.07810
H79         H  0.22330296  0.28996066  0.66074165     0.09010
Cu80       Cu  0.26612484  0.31307419  0.74203406     0.44170
Cu81       Cu  0.26508791  0.26419811  0.69645982     0.41990
Cu82       Cu  0.31722094  0.27106909  0.73737981     0.43880
N83         N  0.29628763  0.31413024  0.76534798    -0.34610
N84         N  0.31545729  0.29935271  0.76295409    -0.28860
C85         C  0.33347614  0.30702180  0.77812935    -0.04960
C86         C  0.32505804  0.32734729  0.79083833     0.07260
C87         C  0.30146355  0.33139961  0.78236468     0.01050
H88         H  0.35165253  0.29898783  0.77911042     0.08700
H89         H  0.28959630  0.34670562  0.78695806     0.07780
N90         N  0.31539368  0.24509297  0.70944503    -0.36050
N91         N  0.29584702  0.24170440  0.69529424    -0.28230
C92         C  0.30106652  0.22453853  0.67818707    -0.03470
C93         C  0.32509525  0.21708230  0.68161878     0.05140
C94         C  0.33369935  0.23050486  0.70145502     0.03230
H95         H  0.28889831  0.21922509  0.66329761     0.08340
H96         H  0.35213991  0.23034703  0.70896755     0.07170
N97         N  0.31480535  0.76402135  0.70915413    -0.27220
N98         N  0.29512988  0.76733279  0.69516183    -0.35080
C99         C  0.30018610  0.78445234  0.67795126     0.01120
C100        C  0.32424483  0.79193176  0.68113740     0.07150
C101        C  0.33302767  0.77858543  0.70094500    -0.05950
H102        H  0.28790053  0.78967696  0.66312561     0.07810
H103        H  0.35154012  0.77875739  0.70827651     0.09010
Cu104      Cu  0.26446960  0.74467929  0.69655778     0.44170
Cu105      Cu  0.31701492  0.73811262  0.73710873     0.41990
Cu106      Cu  0.26691984  0.69502862  0.74130745     0.43880
N107        N  0.24145393  0.71424023  0.69572362    -0.34610
N108        N  0.24273442  0.69592842  0.71177387    -0.28860
C109        C  0.22810452  0.67748923  0.70410704    -0.04960
C110        C  0.21703320  0.68464864  0.68233908     0.07260
C111        C  0.22580063  0.70799518  0.67751536     0.01050
H112        H  0.22646960  0.65981794  0.71316150     0.08700
H113        H  0.22218668  0.71903293  0.66128825     0.07780
N114        N  0.29712177  0.69429343  0.76457744    -0.36050
N115        N  0.31587952  0.70962693  0.76247228    -0.28230
C116        C  0.33398654  0.70234931  0.77773890    -0.03470
C117        C  0.32606833  0.68165140  0.79015777     0.05140
C118        C  0.30267367  0.67699310  0.78144555     0.03230
H119        H  0.35189698  0.71092332  0.77898378     0.08340
H120        H  0.29117077  0.66136651  0.78587848     0.07170
N121        N  0.76594033  0.31296873  0.29856960    -0.27220
N122        N  0.76672880  0.29463452  0.31460978    -0.35080
C123        C  0.78287079  0.30022888  0.33257573     0.01120
C124        C  0.79247934  0.32319158  0.32759457     0.07150
C125        C  0.78135244  0.33083027  0.30602446    -0.05950
H126        H  0.78617346  0.28911606  0.34881793     0.07810
H127        H  0.78346256  0.34846863  0.29700454     0.09010
Cu128      Cu  0.74259484  0.26518285  0.31398071     0.44170
Cu129      Cu  0.74166276  0.31447091  0.26921147     0.41990
Cu130      Cu  0.69551018  0.26674233  0.26662610     0.43880
N131        N  0.71230081  0.24210815  0.31353052    -0.34610
N132        N  0.69519904  0.24258746  0.29615013    -0.28860
C133        C  0.67676930  0.22741779  0.30260813    -0.04960
C134        C  0.68260081  0.21702171  0.32508834     0.07260
C135        C  0.70516775  0.22666852  0.33155482     0.01050
H136        H  0.65986713  0.22510772  0.29231307     0.08700
H137        H  0.71513069  0.22359097  0.34857721     0.07780
N138        N  0.69589094  0.29694606  0.24337109    -0.36050
N139        N  0.71270638  0.31449303  0.24446100    -0.28230
C140        C  0.70623082  0.33285771  0.22915104    -0.03470
C141        C  0.68437977  0.32645756  0.21793836     0.05140
C142        C  0.67826223  0.30366077  0.22730099     0.03230
H143        H  0.71608627  0.35004476  0.22723239     0.08340
H144        H  0.66164602  0.29331425  0.22369903     0.07170
O145        O  0.47934504  0.53157334  0.19970387    -0.72870
O146        O  0.53203533  0.47703397  0.19989371    -0.73850
O147        O  0.53301209  0.53062810  0.19978099    -0.62470
O148        O  0.47859296  0.47777293  0.19974679    -0.70880
O149        O  0.47978138  0.47939368  0.15886941    -0.70440
O150        O  0.53181339  0.52895514  0.15890373    -0.61690
O151        O  0.53038648  0.47818771  0.15901003    -0.74200
O152        O  0.48098426  0.53035573  0.15883173    -0.72980
Cu153      Cu  0.50570828  0.50429989  0.20155922     1.04560
Cu154      Cu  0.50570713  0.50426639  0.15783047     1.03730
C155        C  0.47215242  0.53942858  0.17855870     0.93320
C156        C  0.53916547  0.46910640  0.17878230     0.92460
C157        C  0.54100331  0.53766223  0.17865345     0.84610
C158        C  0.47109020  0.47020540  0.17860323     0.90880
N159        N  0.35495488  0.36296672  0.16924574    -0.27220
N160        N  0.36775812  0.37082080  0.18859895    -0.35080
C161        C  0.35925822  0.35943261  0.20894203     0.01120
C162        C  0.34023086  0.34408020  0.20205572     0.07150
C163        C  0.33790018  0.34677922  0.17691291    -0.05950
H164        H  0.36634135  0.36222800  0.22740166     0.07810
H165        H  0.32512340  0.33726681  0.16492552     0.09010
Cu166      Cu  0.39634553  0.39667797  0.18805720     0.44170
Cu167      Cu  0.36097723  0.37172243  0.13242351     0.41990
Cu168      Cu  0.41368482  0.40621156  0.12554787     0.43880
N169        N  0.42397483  0.42158823  0.17827273    -0.34610
N170        N  0.42975602  0.42402582  0.15474470    -0.28860
C171        C  0.44702868  0.44120948  0.15225952    -0.04960
C172        C  0.45282189  0.45045193  0.17522051     0.07260
C173        C  0.43790083  0.43752974  0.19159928     0.01050
H174        H  0.45460948  0.44686242  0.13468825     0.08700
H175        H  0.43693240  0.43980876  0.21141036     0.07780
N176        N  0.39509773  0.39266736  0.09553247    -0.36050
N177        N  0.37454517  0.38003508  0.09765424    -0.28230
C178        C  0.36643471  0.37403925  0.07490926    -0.03470
C179        C  0.38290667  0.38345680  0.05772500     0.05140
C180        C  0.40080927  0.39513089  0.07161040     0.03230
H181        H  0.35019360  0.36314524  0.07126027     0.08340
H182        H  0.41676385  0.40491524  0.06485764     0.07170
N183        N  0.35694270  0.64800198  0.16933866    -0.27220
N184        N  0.36887213  0.63901748  0.18876491    -0.35080
C185        C  0.35981204  0.64965171  0.20927694     0.01120
C186        C  0.34142597  0.66576827  0.20237284     0.07150
C187        C  0.34001829  0.66427846  0.17707907    -0.05950
H188        H  0.36610159  0.64585672  0.22784599     0.07810
H189        H  0.32779972  0.67448714  0.16507764     0.09010
Cu190      Cu  0.39706270  0.61268391  0.18809993     0.44170
Cu191      Cu  0.36329458  0.64005748  0.13243709     0.41990
Cu192      Cu  0.41292951  0.60159200  0.12539977     0.43880
N193        N  0.42450808  0.58755385  0.17823335    -0.34610
N194        N  0.42971928  0.58456339  0.15463469    -0.28860
C195        C  0.44721313  0.56760700  0.15214574    -0.04960
C196        C  0.45373742  0.55905412  0.17517420     0.07260
C197        C  0.43898351  0.57213007  0.19159524     0.01050
H198        H  0.45441929  0.56160716  0.13453127     0.08700
H199        H  0.43853602  0.57033073  0.21147577     0.07780
N200        N  0.39505358  0.61607816  0.09541767    -0.36050
N201        N  0.37578309  0.63057148  0.09761743    -0.28230
C202        C  0.36805988  0.63717347  0.07490900    -0.03470
C203        C  0.38344020  0.62616461  0.05764994     0.05140
C204        C  0.40029664  0.61294437  0.07147633     0.03230
H205        H  0.35288313  0.64953394  0.07136170     0.08340
H206        H  0.41527420  0.60174191  0.06468126     0.07170
N207        N  0.65259400  0.35889094  0.16903998    -0.27220
N208        N  0.64214714  0.36921315  0.18862471    -0.35080
C209        C  0.65203908  0.35921945  0.20910304     0.01120
C210        C  0.66927520  0.34198308  0.20198481     0.07150
C211        C  0.66919046  0.34219333  0.17662014    -0.05950
H212        H  0.64692638  0.36403476  0.22778100     0.07810
H213        H  0.68031064  0.33098261  0.16447801     0.09010
Cu214      Cu  0.61444439  0.39606147  0.18821092     0.44170
Cu215      Cu  0.64518396  0.36604906  0.13217833     0.41990
Cu216      Cu  0.59677251  0.40582332  0.12566996     0.43880
N217        N  0.58665654  0.42088284  0.17848277    -0.34610
N218        N  0.58077541  0.42331756  0.15496331    -0.28860
C219        C  0.56322607  0.44021020  0.15250637    -0.04960
C220        C  0.55734955  0.44929690  0.17547191     0.07260
C221        C  0.57253643  0.43660170  0.19183572     0.01050
H222        H  0.55557155  0.44582929  0.13493338     0.08700
H223        H  0.57356499  0.43890570  0.21164367     0.07780
N224        N  0.61413252  0.39139469  0.09546670    -0.36050
N225        N  0.63284259  0.37616153  0.09747439    -0.28230
C226        C  0.64085649  0.37031479  0.07469153    -0.03470
C227        C  0.62632945  0.38271041  0.05758538     0.05140
C228        C  0.60961732  0.39587940  0.07158179     0.03230
H229        H  0.65642644  0.35851482  0.07099883     0.08340
H230        H  0.59518382  0.40789312  0.06495432     0.07170
N231        N  0.64662833  0.65506944  0.16888963    -0.27220
N232        N  0.63932658  0.64203947  0.18828438    -0.35080
C233        C  0.65104272  0.65053717  0.20846933     0.01120
C234        C  0.66597547  0.66985078  0.20145110     0.07150
C235        C  0.66270690  0.67232251  0.17638720    -0.05950
H236        H  0.64876852  0.64324820  0.22691032     0.07810
H237        H  0.67188084  0.68523601  0.16430521     0.09010
Cu238      Cu  0.61384069  0.61309342  0.18792744     0.44170
Cu239      Cu  0.63760857  0.64881663  0.13215393     0.41990
Cu240      Cu  0.60501016  0.59476921  0.12555958     0.43880
N241        N  0.58955856  0.58481756  0.17828238    -0.34610
N242        N  0.58754003  0.57852866  0.15483275    -0.28860
C243        C  0.57063520  0.56096366  0.15240771    -0.04960
C244        C  0.56110689  0.55554238  0.17532013     0.07260
C245        C  0.57357813  0.57098034  0.19160983     0.01050
H246        H  0.56516755  0.55312419  0.13487240     0.08700
H247        H  0.57082599  0.57249129  0.21132333     0.07780
N248        N  0.61770618  0.61376052  0.09545055    -0.36050
N249        N  0.62961860  0.63476712  0.09746803    -0.28230
C250        C  0.63520036  0.64300022  0.07467877    -0.03470
C251        C  0.62624413  0.62615019  0.05756506     0.05140
C252        C  0.61527681  0.60789421  0.07155082     0.03230
H253        H  0.64550294  0.65960755  0.07095778     0.08340
H254        H  0.60598249  0.59158946  0.06488594     0.07170
O255        O  0.48028944  0.53006144  0.84924159    -0.72870
O256        O  0.52958696  0.47779500  0.84906446    -0.73850
O257        O  0.53111719  0.52860808  0.84913641    -0.62470
O258        O  0.47902855  0.47915348  0.84925521    -0.70880
O259        O  0.47765732  0.47750353  0.80838149    -0.70440
O260        O  0.53213947  0.53032216  0.80826155    -0.61690
O261        O  0.53107128  0.47665407  0.80817756    -0.74200
O262        O  0.47845304  0.53126637  0.80837349    -0.72980
Cu263      Cu  0.50499436  0.50396028  0.85024642     1.04560
Cu264      Cu  0.50480637  0.50399368  0.80651953     1.04330
C265        C  0.47129453  0.53906330  0.82952769     0.93320
C266        C  0.53815759  0.46860072  0.82927865     0.92460
C267        C  0.54019730  0.53736505  0.82938399     0.84610
C268        C  0.47022653  0.46997515  0.82954493     0.90880
N269        N  0.35432715  0.36243047  0.83964202    -0.27220
N270        N  0.36690491  0.37044527  0.82023584    -0.35080
C271        C  0.35832410  0.35906314  0.79990513     0.01120
C272        C  0.33945343  0.34356391  0.80682592     0.07150
C273        C  0.33730451  0.34616503  0.83199781    -0.05950
H274        H  0.36527987  0.36192966  0.78142727     0.07810
H275        H  0.32474873  0.33645581  0.84402682     0.09010
Cu276      Cu  0.39537301  0.39643870  0.82056866     0.44170
Cu277      Cu  0.36080941  0.37086366  0.87652087     0.41990
Cu278      Cu  0.41317566  0.40600690  0.88280056     0.43880
N279        N  0.42302443  0.42144577  0.83009032    -0.34610
N280        N  0.42894933  0.42392580  0.85358848    -0.28860
C281        C  0.44625064  0.44109062  0.85599182    -0.04960
C282        C  0.45192056  0.45028200  0.83299626     0.07260
C283        C  0.43688533  0.43734982  0.81668548     0.01050
H284        H  0.45396832  0.44673252  0.87352782     0.08700
H285        H  0.43582045  0.43957550  0.79687013     0.07780
N286        N  0.39544343  0.39189577  0.91298420    -0.36050
N287        N  0.37506320  0.37893534  0.91114989    -0.28230
C288        C  0.36751013  0.37275143  0.93402087    -0.03470
C289        C  0.38426489  0.38222059  0.95094220     0.05140
C290        C  0.40157577  0.39441689  0.93680773     0.03230
H291        H  0.35129251  0.36194461  0.93800828     0.08340
H292        H  0.41723128  0.40487257  0.94326322     0.07170
N293        N  0.35608114  0.64779386  0.83935980    -0.27220
N294        N  0.36813956  0.63901130  0.81994645    -0.35080
C295        C  0.35922586  0.64986123  0.79945823     0.01120
C296        C  0.34073028  0.66584381  0.80630960     0.07150
C297        C  0.33913202  0.66407409  0.83158639    -0.05950
H298        H  0.36568156  0.64628571  0.78092166     0.07810
H299        H  0.32687860  0.67422071  0.84356797     0.09010
Cu300      Cu  0.39625744  0.61256878  0.82038668     0.44170
Cu301      Cu  0.36257948  0.63989762  0.87634807     0.41990
Cu302      Cu  0.41118967  0.60004643  0.88276920     0.43880
N303        N  0.42338955  0.58694925  0.82997337    -0.34610
N304        N  0.42817471  0.58336090  0.85358421    -0.28860
C305        C  0.44565312  0.56638887  0.85603871    -0.04960
C306        C  0.45262601  0.55842854  0.83295622     0.07260
C307        C  0.43812464  0.57186662  0.81654303     0.01050
H308        H  0.45261912  0.56005447  0.87365437     0.08700
H309        H  0.43811052  0.57062549  0.79661431     0.07780
N310        N  0.39442672  0.61520291  0.91293029    -0.36050
N311        N  0.37563044  0.63035866  0.91106200    -0.28230
C312        C  0.36878176  0.63734331  0.93392558    -0.03470
C313        C  0.38437333  0.62606218  0.95086278     0.05140
C314        C  0.40020655  0.61198674  0.93674478     0.03230
H315        H  0.35391674  0.64995902  0.93789414     0.08340
H316        H  0.41468181  0.59993711  0.94315725     0.07170
N317        N  0.65175014  0.35872265  0.83984633    -0.27220
N318        N  0.64142452  0.36900286  0.82014499    -0.35080
C319        C  0.65146289  0.35898497  0.79977879     0.01120
C320        C  0.66864195  0.34174548  0.80709001     0.07150
C321        C  0.66839153  0.34200504  0.83245552    -0.05950
H322        H  0.64648881  0.36378541  0.78104411     0.07810
H323        H  0.67946983  0.33085441  0.84472496     0.09010
Cu324      Cu  0.61360270  0.39573909  0.82028967     0.44170
Cu325      Cu  0.64413747  0.36605926  0.87661101     0.41990
Cu326      Cu  0.59379990  0.40353438  0.88241927     0.43880
N327        N  0.58519549  0.41994617  0.82971412    -0.34610
N328        N  0.57839243  0.42150791  0.85304004    -0.28860
C329        C  0.56080260  0.43837084  0.85538583    -0.04960
C330        C  0.55586888  0.44834978  0.83255200     0.07260
C331        C  0.57162751  0.43618955  0.81637257     0.01050
H332        H  0.55260877  0.44349384  0.87284248     0.08700
H333        H  0.57354743  0.43934171  0.79675373     0.07780
N334        N  0.61189956  0.39046310  0.91286998    -0.36050
N335        N  0.63140577  0.37623267  0.91111896    -0.28230
C336        C  0.63986403  0.37137508  0.93399300    -0.03470
C337        C  0.62495399  0.38355085  0.95084640     0.05140
C338        C  0.60730719  0.39527816  0.93667009     0.03230
H339        H  0.65588722  0.36027343  0.93801699     0.08340
H340        H  0.59208720  0.40637838  0.94302620     0.07170
N341        N  0.64570279  0.65500609  0.83956928    -0.27220
N342        N  0.63834298  0.64201495  0.82014653    -0.35080
C343        C  0.65001338  0.65054418  0.79998217     0.01120
C344        C  0.66493577  0.66987148  0.80702018     0.07150
C345        C  0.66173521  0.67229654  0.83209077    -0.05950
H346        H  0.64775703  0.64322854  0.78154417     0.07810
H347        H  0.67102899  0.68511367  0.84420812     0.09010
Cu348      Cu  0.61288519  0.61302734  0.82035024     0.44170
Cu349      Cu  0.63711323  0.64847303  0.87635765     0.41990
Cu350      Cu  0.60399654  0.59475293  0.88255381     0.43880
N351        N  0.58856276  0.58474154  0.82983301    -0.34610
N352        N  0.58649697  0.57851219  0.85328504    -0.28860
C353        C  0.56966274  0.56088788  0.85567633    -0.04960
C354        C  0.56021597  0.55535429  0.83273202     0.07260
C355        C  0.57266346  0.57080602  0.81645981     0.01050
H356        H  0.56421104  0.55305836  0.87320691     0.08700
H357        H  0.56996932  0.57223591  0.79672424     0.07780
N358        N  0.61738154  0.61308970  0.91277097    -0.36050
N359        N  0.62960300  0.63393081  0.91094928    -0.28230
C360        C  0.63558597  0.64170197  0.93381637    -0.03470
C361        C  0.62674320  0.62463068  0.95073829     0.05140
C362        C  0.61511256  0.60689255  0.93659417     0.03230
H363        H  0.64585728  0.65828377  0.93779655     0.08340
H364        H  0.60522745  0.59086990  0.94303162     0.07170
O365        O  0.53223866  0.19959077  0.53125534    -0.72870
O366        O  0.47763123  0.19975604  0.47836233    -0.73850
O367        O  0.47868653  0.19950607  0.53234788    -0.62470
O368        O  0.53126867  0.19973303  0.47748939    -0.70880
O369        O  0.52954727  0.15898680  0.47864640    -0.70440
O370        O  0.48033107  0.15875433  0.53107212    -0.61690
O371        O  0.47879612  0.15900455  0.47998911    -0.74200
O372        O  0.53101469  0.15884006  0.52951515    -0.72980
Cu373      Cu  0.50491232  0.20142485  0.50485777     1.04560
Cu374      Cu  0.50488283  0.15783264  0.50478495     1.04330
C375        C  0.54010533  0.17850011  0.53840468     0.93320
C376        C  0.46988430  0.17870101  0.47098397     0.92460
C377        C  0.47170197  0.17841551  0.54037938     0.84610
C378        C  0.53857119  0.17865534  0.46973223     0.90880
N379        N  0.35586338  0.16881567  0.36056804    -0.27220
N380        N  0.36793228  0.18823135  0.36928251    -0.35080
C381        C  0.35892563  0.20859941  0.35836204     0.01120
C382        C  0.34030924  0.20166477  0.34246802     0.07150
C383        C  0.33878396  0.17646711  0.34432187    -0.05950
H384        H  0.36536640  0.22711244  0.36186255     0.07810
H385        H  0.32652584  0.16444716  0.33420376     0.09010
Cu386      Cu  0.39596273  0.18792211  0.39597052     0.44170
Cu387      Cu  0.36247207  0.13195425  0.36845051     0.41990
Cu388      Cu  0.40960914  0.12559558  0.40994131     0.43880
N389        N  0.42219887  0.17833191  0.42263064    -0.34610
N390        N  0.42627334  0.15477598  0.42692645    -0.28860
C391        C  0.44330565  0.15232159  0.44440970    -0.04960
C392        C  0.45078275  0.17533638  0.45194284     0.07260
C393        C  0.43701998  0.19172107  0.43772287     0.01050
H394        H  0.44987454  0.13474820  0.45113374     0.08700
H395        H  0.43773945  0.21160869  0.43826287     0.07780
N396        N  0.39351831  0.09544166  0.39409964    -0.36050
N397        N  0.37522449  0.09731145  0.37827842    -0.28230
C398        C  0.36853905  0.07451896  0.37107126    -0.03470
C399        C  0.38371288  0.05761017  0.38291441     0.05140
C400        C  0.39914530  0.07168842  0.39752510     0.03230
H401        H  0.35401248  0.07057257  0.35799956     0.08340
H402        H  0.41316803  0.06528588  0.41014115     0.07170
N403        N  0.64895946  0.16856150  0.35608289    -0.27220
N404        N  0.63949597  0.18812466  0.36730363    -0.35080
C405        C  0.65014995  0.20845441  0.35792729     0.01120
C406        C  0.66686768  0.20126288  0.34016938     0.07150
C407        C  0.66566165  0.17601033  0.33942620    -0.05950
H408        H  0.64600733  0.22708333  0.36361381     0.07810
H409        H  0.67622770  0.16384546  0.32771569     0.09010
Cu410      Cu  0.61254004  0.18781474  0.39501112     0.44170
Cu411      Cu  0.64078420  0.13183602  0.36261336     0.41990
Cu412      Cu  0.59933635  0.12518992  0.40960046     0.43880
N413        N  0.58645540  0.17810210  0.42170934    -0.34610
N414        N  0.58251617  0.15455163  0.42619558    -0.28860
C415        C  0.56529358  0.15217129  0.44345712    -0.04960
C416        C  0.55757217  0.17521348  0.45065174     0.07260
C417        C  0.57141150  0.19153975  0.43649431     0.01050
H418        H  0.55880644  0.13462628  0.45031173     0.08700
H419        H  0.57059016  0.21142742  0.43686271     0.07780
N420        N  0.61463775  0.09507335  0.39283420    -0.36050
N421        N  0.63036397  0.09714580  0.37450700    -0.28230
C422        C  0.63738347  0.07445490  0.36733955    -0.03470
C423        C  0.62536957  0.05734141  0.38211964     0.05140
C424        C  0.61112977  0.07123138  0.39804489     0.03230
H425        H  0.65071099  0.07081460  0.35300885     0.08340
H426        H  0.59903101  0.06454404  0.41239012     0.07170
N427        N  0.35402656  0.16869088  0.64577721    -0.27220
N428        N  0.36733498  0.18792618  0.63870749    -0.35080
C429        C  0.35902852  0.20806751  0.65052503     0.01120
C430        C  0.33950806  0.20123679  0.66527098     0.07150
C431        C  0.33672611  0.17629051  0.66178188    -0.05950
H432        H  0.36658085  0.22636712  0.64842891     0.07810
H433        H  0.32361602  0.16434591  0.67082256     0.09010
Cu434      Cu  0.39640180  0.18746079  0.61338135     0.44170
Cu435      Cu  0.36026818  0.13200336  0.63669821     0.41990
Cu436      Cu  0.41536557  0.12541760  0.60545451     0.43880
N437        N  0.42480522  0.17790625  0.58925847    -0.34610
N438        N  0.43137502  0.15458310  0.58753346    -0.28860
C439        C  0.44891974  0.15221550  0.57056026    -0.04960
C440        C  0.45401810  0.17503674  0.56070456     0.07260
C441        C  0.43841978  0.19120132  0.57304739     0.01050
H442        H  0.45694459  0.13477816  0.56524181     0.08700
H443        H  0.43660845  0.21079539  0.57001240     0.07780
N444        N  0.39626710  0.09542308  0.61825836    -0.36050
N445        N  0.37485108  0.09740604  0.62942586    -0.28230
C446        C  0.36651131  0.07465013  0.63478575    -0.03470
C447        C  0.38380924  0.05763295  0.62671085     0.05140
C448        C  0.40230376  0.07159290  0.61616941     0.03230
H449        H  0.34937392  0.07079568  0.64412838     0.08340
H450        H  0.41872206  0.06498618  0.60708458     0.07170
N451        N  0.64877479  0.16851156  0.65380885    -0.27220
N452        N  0.63992771  0.18801385  0.64196484    -0.35080
C453        C  0.65085121  0.20832308  0.65108052     0.01120
C454        C  0.66703028  0.20120505  0.66940142     0.07150
C455        C  0.66526235  0.17600195  0.67071268    -0.05950
H456        H  0.64723851  0.22689350  0.64484816     0.07810
H457        H  0.67542981  0.16388660  0.68285443     0.09010
Cu458      Cu  0.61347836  0.18768721  0.61374400     0.44170
Cu459      Cu  0.64042747  0.13178543  0.64737537     0.41990
Cu460      Cu  0.60203929  0.12521192  0.59759123     0.43880
N461        N  0.58828587  0.17800146  0.58617111    -0.34610
N462        N  0.58520932  0.15449357  0.58086485    -0.28860
C463        C  0.56823800  0.15209259  0.56330865    -0.04960
C464        C  0.55975397  0.17508320  0.55683856     0.07260
C465        C  0.57289062  0.19139659  0.57168763     0.01050
H466        H  0.56216877  0.13455739  0.55603958     0.08700
H467        H  0.57114604  0.21122143  0.57220143     0.07780
N468        N  0.61621329  0.09511423  0.61535975    -0.36050
N469        N  0.63070750  0.09712618  0.63473378    -0.28230
C470        C  0.63715399  0.07440003  0.64234824    -0.03470
C471        C  0.62604049  0.05733734  0.62678059     0.05140
C472        C  0.61291746  0.07129360  0.60993582     0.03230
H473        H  0.64949083  0.07068864  0.65756975     0.08340
H474        H  0.60169231  0.06467720  0.59482991     0.07170
O475        O  0.47987539  0.84970721  0.53067080    -0.72870
O476        O  0.52943136  0.84908684  0.47857852    -0.73850
O477        O  0.47869283  0.84951616  0.47957141    -0.62470
O478        O  0.53056327  0.84921044  0.52948312    -0.70880
O479        O  0.53158222  0.80845840  0.53120147    -0.70440
O480        O  0.47720840  0.80877440  0.47799653    -0.61690
O481        O  0.53085723  0.80833353  0.47737979    -0.74200
O482        O  0.47800899  0.80896781  0.53199706    -0.72980
Cu483      Cu  0.50461889  0.85044144  0.50455988     1.04560
Cu484      Cu  0.50436156  0.80685443  0.50463936     1.04330
C485        C  0.47106904  0.83010733  0.53993956     0.93320
C486        C  0.53831624  0.82936206  0.46964286     0.92460
C487        C  0.46967690  0.82988694  0.47053477     0.84610
C488        C  0.53948857  0.82950129  0.53844417     0.90880
N489        N  0.35452081  0.83981301  0.36139821    -0.27220
N490        N  0.36688739  0.82041685  0.36971702    -0.35080
C491        C  0.35801694  0.80011322  0.35856550     0.01120
C492        C  0.33917407  0.80708749  0.34294515     0.07150
C493        C  0.33738678  0.83222915  0.34519150    -0.05950
H494        H  0.36471707  0.78162582  0.36170256     0.07810
H495        H  0.32493347  0.84427135  0.33533839     0.09010
Cu496      Cu  0.39519892  0.82083548  0.39610108     0.44170
Cu497      Cu  0.36090001  0.87657468  0.36968301     0.41990
Cu498      Cu  0.40957589  0.88335112  0.40943536     0.43880
N499        N  0.42188910  0.83050754  0.42227689    -0.34610
N500        N  0.42634865  0.85405490  0.42625548    -0.28860
C501        C  0.44355397  0.85643031  0.44359260    -0.04960
C502        C  0.45071834  0.83338058  0.45135873     0.07260
C503        C  0.43660989  0.81706365  0.43742157     0.01050
H504        H  0.45034986  0.87397035  0.45016767     0.08700
H505        H  0.43694620  0.79717624  0.43826871     0.07780
N506        N  0.39241086  0.91337491  0.39435075    -0.36050
N507        N  0.37351341  0.91128039  0.37928909    -0.28230
C508        C  0.36629106  0.93395912  0.37225040    -0.03470
C509        C  0.38160341  0.95109239  0.38357844     0.05140
C510        C  0.39790248  0.93720905  0.39743262     0.03230
H511        H  0.35151442  0.93756095  0.35938028     0.08340
H512        H  0.41268163  0.94389089  0.40901541     0.07170
N513        N  0.64888915  0.83983226  0.35609020    -0.27220
N514        N  0.63972216  0.82021370  0.36747575    -0.35080
C515        C  0.65045398  0.79995059  0.35802842     0.01120
C516        C  0.66679050  0.80721505  0.33993926     0.07150
C517        C  0.66534767  0.83245957  0.33914862    -0.05950
H518        H  0.64658886  0.78130693  0.36386168     0.07810
H519        H  0.67574935  0.84468588  0.32735498     0.09010
Cu520      Cu  0.61285250  0.82025188  0.39532574     0.44170
Cu521      Cu  0.64102119  0.87659840  0.36302942     0.41990
Cu522      Cu  0.59888735  0.88264637  0.40931991     0.43880
N523        N  0.58635008  0.82978274  0.42172191    -0.34610
N524        N  0.58209665  0.85332899  0.42589836    -0.28860
C525        C  0.56476827  0.85573551  0.44303664    -0.04960
C526        C  0.55727594  0.83270865  0.45049471     0.07260
C527        C  0.57136761  0.81635729  0.43659363     0.01050
H528        H  0.55810795  0.87329656  0.44968138     0.08700
H529        H  0.57080919  0.79646812  0.43725013     0.07780
N530        N  0.61468443  0.91296226  0.39352608    -0.36050
N531        N  0.63080730  0.91118493  0.37552310    -0.28230
C532        C  0.63798918  0.93400955  0.36895616    -0.03470
C533        C  0.62581449  0.95084855  0.38392058     0.05140
C534        C  0.61103927  0.93669732  0.39909639     0.03230
H535        H  0.65128591  0.93802317  0.35468166     0.08340
H536        H  0.59820532  0.94303801  0.41292097     0.07170
N537        N  0.35276483  0.84006148  0.64460642    -0.27220
N538        N  0.36636818  0.82088259  0.63796051    -0.35080
C539        C  0.35825323  0.80084496  0.65008662     0.01120
C540        C  0.33853670  0.80767297  0.66457577     0.07150
C541        C  0.33545240  0.83251703  0.66062431    -0.05950
H542        H  0.36606058  0.78261213  0.64836563     0.07810
H543        H  0.32213783  0.84444942  0.66937784     0.09010
Cu544      Cu  0.39554568  0.82131475  0.61275670     0.44170
Cu545      Cu  0.35865269  0.87665814  0.63496073     0.41990
Cu546      Cu  0.41385902  0.88348555  0.60394158     0.43880
N547        N  0.42389506  0.83085162  0.58855614    -0.34610
N548        N  0.43022338  0.85421587  0.58650984    -0.28860
C549        C  0.44781269  0.85651819  0.56957371    -0.04960
C550        C  0.45319159  0.83361133  0.56007479     0.07260
C551        C  0.43771007  0.81746760  0.57259049     0.01050
H552        H  0.45568763  0.87395746  0.56404364     0.08700
H553        H  0.43614182  0.79780869  0.56986238     0.07780
N554        N  0.39432509  0.91342204  0.61623119    -0.36050
N555        N  0.37286652  0.91131824  0.62729344    -0.28230
C556        C  0.36439052  0.93401619  0.63268558    -0.03470
C557        C  0.38156431  0.95114736  0.62456257     0.05140
C558        C  0.40026315  0.93728651  0.61425856     0.03230
H559        H  0.34743491  0.93767106  0.64241758     0.08340
H560        H  0.41695192  0.94403521  0.60578011     0.07170
N561        N  0.64820338  0.83984699  0.65394495    -0.27220
N562        N  0.63957492  0.82026519  0.64206596    -0.35080
C563        C  0.65062081  0.80005113  0.65128156     0.01120
C564        C  0.66655851  0.80729944  0.66977801     0.07150
C565        C  0.66456668  0.83248924  0.67103360    -0.05950
H566        H  0.64725651  0.78145292  0.64499872     0.07810
H567        H  0.67464436  0.84470767  0.68314246     0.09010
Cu568      Cu  0.61314682  0.82033731  0.61373965     0.44170
Cu569      Cu  0.64011729  0.87658174  0.64709833     0.41990
Cu570      Cu  0.60102382  0.88271478  0.59799078     0.43880
N571        N  0.58758833  0.82990449  0.58638343    -0.34610
N572        N  0.58421649  0.85342793  0.58133868    -0.28860
C573        C  0.56719823  0.85584448  0.56383925    -0.04960
C574        C  0.55896513  0.83284772  0.55709835     0.07260
C575        C  0.57230798  0.81650598  0.57176487     0.01050
H576        H  0.56100809  0.87339710  0.55670964     0.08700
H577        H  0.57084999  0.79665309  0.57198966     0.07780
N578        N  0.61586086  0.91297396  0.61483300    -0.36050
N579        N  0.63075172  0.91116334  0.63391805    -0.28230
C580        C  0.63754915  0.93396944  0.64095681    -0.03470
C581        C  0.62640786  0.95083530  0.62519863     0.05140
C582        C  0.61262027  0.93671746  0.60904391     0.03230
H583        H  0.64991914  0.93794547  0.65609241     0.08340
H584        H  0.60073712  0.94309907  0.59436084     0.07170
N585        N  0.76540303  0.71213868  0.31479118    -0.27220
N586        N  0.76411832  0.69384614  0.29874362    -0.35080
C587        C  0.77979741  0.67599120  0.30566236     0.01120
C588        C  0.79159298  0.68358767  0.32690080     0.07150
C589        C  0.78207336  0.70650719  0.33225487    -0.05950
H590        H  0.78165098  0.65837908  0.29653691     0.07810
H591        H  0.78586125  0.71759070  0.34840877     0.09010
Cu592      Cu  0.73904121  0.69269409  0.26999030     0.44170
Cu593      Cu  0.74152797  0.74178853  0.31459091     0.41990
Cu594      Cu  0.69705657  0.74419160  0.26476405     0.43880
N595        N  0.71063688  0.69440173  0.24457112    -0.34610
N596        N  0.69599274  0.71365741  0.24187525    -0.28860
C597        C  0.67854490  0.70823964  0.22511368    -0.04960
C598        C  0.68229993  0.68439485  0.21719506     0.07260
C599        C  0.70267180  0.67609496  0.22990463     0.01050
H600        H  0.66329187  0.72012671  0.22037595     0.08700
H601        H  0.71056560  0.65782916  0.22926100     0.07780
N602        N  0.69609596  0.76713675  0.29530703    -0.36050
N603        N  0.71203950  0.76585492  0.31372677    -0.28230
C604        C  0.70438205  0.78049675  0.33219224    -0.03470
C605        C  0.68272898  0.79156348  0.32492496     0.05140
C606        C  0.67796002  0.78279051  0.30149844     0.03230
H607        H  0.71338481  0.78217105  0.34993411     0.08340
H608        H  0.66183943  0.78642277  0.29035621     0.07170
O609        O  0.15995291  0.52977186  0.52949326    -0.72870
O610        O  0.15993779  0.47871790  0.47872285    -0.73850
O611        O  0.16005507  0.47899274  0.52981770    -0.62470
O612        O  0.15981572  0.52941303  0.47842115    -0.70880
O613        O  0.20051801  0.53096963  0.47699632    -0.70440
O614        O  0.20076168  0.47755529  0.53122099    -0.61690
O615        O  0.20064535  0.47739496  0.47722021    -0.74200
O616        O  0.20065382  0.53126117  0.53098671    -0.72980
Cu617      Cu  0.15888175  0.50421637  0.50413430     1.04560
Cu618      Cu  0.20242124  0.50429475  0.50412335     1.04330
C619        C  0.17958956  0.53875329  0.53853431     0.93320
C620        C  0.17958763  0.46997070  0.46953626     0.92460
C621        C  0.17972508  0.47015426  0.53893039     0.84610
C622        C  0.17942876  0.53821532  0.46921705     0.90880
N623        N  0.16910639  0.35456099  0.36086377    -0.27220
N624        N  0.18866281  0.36652283  0.36937804    -0.35080
C625        C  0.20884045  0.35736613  0.35827642     0.01120
C626        C  0.20159961  0.33883413  0.34239645     0.07150
C627        C  0.17644390  0.33749187  0.34449167    -0.05950
H628        H  0.22740844  0.36372981  0.36154553     0.07810
H629        H  0.16423658  0.32533002  0.33448326     0.09010
Cu630      Cu  0.18854431  0.39495715  0.39565460     0.44170
Cu631      Cu  0.13244040  0.36139741  0.36910584     0.41990
Cu632      Cu  0.12632677  0.41225825  0.40608851     0.43880
N633        N  0.17903243  0.42257780  0.42090301    -0.34610
N634        N  0.15559870  0.42825390  0.42364901    -0.28860
C635        C  0.15323758  0.44561718  0.44081660    -0.04960
C636        C  0.17617650  0.45160945  0.44977348     0.07260
C637        C  0.19242117  0.43667241  0.43668347     0.01050
H638        H  0.13575660  0.45314473  0.44663933     0.08700
H639        H  0.21219076  0.43584010  0.43871962     0.07780
N640        N  0.09611133  0.39483629  0.39176356    -0.36050
N641        N  0.09792301  0.37501246  0.37791376    -0.28230
C642        C  0.07513187  0.36750185  0.37163533    -0.03470
C643        C  0.05826496  0.38370957  0.38199766     0.05140
C644        C  0.07237105  0.40064809  0.39480070     0.03230
H645        H  0.07115903  0.35168323  0.36018224     0.08340
H646        H  0.06596903  0.41582396  0.40599028     0.07170
N647        N  0.16900193  0.65415137  0.36123157    -0.27220
N648        N  0.18847837  0.64172017  0.36923370    -0.35080
C649        C  0.20861991  0.65062759  0.35787710     0.01120
C650        C  0.20145233  0.66953791  0.34241671     0.07150
C651        C  0.17636955  0.67134351  0.34500284    -0.05950
H652        H  0.22712237  0.64388721  0.36074356     0.07810
H653        H  0.16421607  0.68385995  0.33537052     0.09010
Cu654      Cu  0.18827815  0.61311168  0.39528495     0.44170
Cu655      Cu  0.13237868  0.64762555  0.36985155     0.41990
Cu656      Cu  0.12595869  0.59609797  0.40600464     0.43880
N657        N  0.17873148  0.58549712  0.42049431    -0.34610
N658        N  0.15529430  0.57986847  0.42331911    -0.28860
C659        C  0.15297790  0.56250055  0.44049669    -0.04960
C660        C  0.17594670  0.55648061  0.44937651     0.07260
C661        C  0.19215773  0.57139381  0.43623342     0.01050
H662        H  0.13550750  0.55503722  0.44642851     0.08700
H663        H  0.21193115  0.57222982  0.43822880     0.07780
N664        N  0.09584035  0.61410790  0.39211518    -0.36050
N665        N  0.09780038  0.63417207  0.37863245    -0.28230
C666        C  0.07508412  0.64186674  0.37229654    -0.03470
C667        C  0.05807177  0.62564232  0.38241193     0.05140
C668        C  0.07205482  0.60831882  0.39484098     0.03230
H669        H  0.07135025  0.65762605  0.36069097     0.08340
H670        H  0.06547132  0.59266500  0.40525229     0.07170
N671        N  0.16909412  0.35532637  0.64840763    -0.27220
N672        N  0.18873279  0.36662845  0.63924900    -0.35080
C673        C  0.20894686  0.35701855  0.64996403     0.01120
C674        C  0.20162016  0.33893517  0.66630885     0.07150
C675        C  0.17639248  0.33831632  0.66487678    -0.05950
H676        H  0.22759176  0.36280175  0.64615340     0.07810
H677        H  0.16412767  0.32660099  0.67530768     0.09010
Cu678      Cu  0.18867309  0.39482831  0.61266338     0.44170
Cu679      Cu  0.13240639  0.36257882  0.64057901     0.41990
Cu680      Cu  0.12636910  0.41134688  0.60106377     0.43880
N681        N  0.17917353  0.42231129  0.58717614    -0.34610
N682        N  0.15570309  0.42762874  0.58398418    -0.28860
C683        C  0.15335290  0.44510674  0.56692930    -0.04960
C684        C  0.17633271  0.45156196  0.55848662     0.07260
C685        C  0.19259464  0.43674758  0.57176209     0.01050
H686        H  0.13585145  0.45243242  0.56086196     0.08700
H687        H  0.21240948  0.43628378  0.57014658     0.07780
N688        N  0.09609175  0.39466564  0.61601638    -0.36050
N689        N  0.09788275  0.37569922  0.63102717    -0.28230
C690        C  0.07508758  0.36862314  0.63771217    -0.03470
C691        C  0.05823670  0.38423387  0.62638757     0.05140
C692        C  0.07236237  0.40034644  0.61260550     0.03230
H693        H  0.07110007  0.35352961  0.65009777     0.08340
H694        H  0.06600818  0.41487394  0.60054977     0.07170
N695        N  0.16886576  0.65325365  0.64842433    -0.27220
N696        N  0.18848029  0.64182604  0.63936304    -0.35080
C697        C  0.20870810  0.65137233  0.65010380     0.01120
C698        C  0.20142834  0.66958290  0.66632680     0.07150
C699        C  0.17620419  0.67032249  0.66481489    -0.05950
H700        H  0.22733768  0.64549911  0.64635014     0.07810
H701        H  0.16396661  0.68214161  0.67516125     0.09010
Cu702      Cu  0.18840728  0.61370001  0.61269522     0.44170
Cu703      Cu  0.13214940  0.64609041  0.64056192     0.41990
Cu704      Cu  0.12605397  0.59859339  0.59954940     0.43880
N705        N  0.17892172  0.58675256  0.58663143    -0.34610
N706        N  0.15541967  0.58206353  0.58275846    -0.28860
C707        C  0.15309528  0.56471695  0.56556873    -0.04960
C708        C  0.17612739  0.55767683  0.55775819     0.07260
C709        C  0.19239023  0.57203087  0.57153059     0.01050
H710        H  0.13558812  0.55775904  0.55910046     0.08700
H711        H  0.21225335  0.57187783  0.57057659     0.07780
N712        N  0.09578304  0.61482678  0.61501287    -0.36050
N713        N  0.09759152  0.63327127  0.63065926    -0.28230
C714        C  0.07480158  0.64005841  0.63767117    -0.03470
C715        C  0.05793768  0.62479670  0.62589339     0.05140
C716        C  0.07205281  0.60919918  0.61151404     0.03230
H717        H  0.07082671  0.65470064  0.65059253     0.08340
H718        H  0.06568958  0.59504437  0.59902871     0.07170
O719        O  0.80968334  0.53054302  0.47692947    -0.72870
O720        O  0.80976939  0.47731207  0.53117340    -0.73850
O721        O  0.80972566  0.53089412  0.53085889    -0.62470
O722        O  0.80976118  0.47700495  0.47724037    -0.70880
O723        O  0.85047325  0.47843810  0.47878998    -0.70440
O724        O  0.85043758  0.52956547  0.52934674    -0.61690
O725        O  0.85048008  0.47886524  0.52982960    -0.74200
O726        O  0.85040212  0.52907394  0.47832018    -0.72980
Cu727      Cu  0.80795424  0.50393701  0.50406076     1.04560
Cu728      Cu  0.85150943  0.50398651  0.50408658     1.04330
C729        C  0.83072772  0.53779311  0.46911602     0.93320
C730        C  0.83084191  0.47002287  0.53893634     0.92460
C731        C  0.83078973  0.53843098  0.53840551     0.84610
C732        C  0.83083261  0.46960475  0.46963218     0.90880
N733        N  0.84088080  0.35308850  0.36242860    -0.27220
N734        N  0.82146980  0.36546513  0.37061343    -0.35080
C735        C  0.80122810  0.35661592  0.35936868     0.01120
C736        C  0.80826508  0.33784649  0.34373318     0.07150
C737        C  0.83337192  0.33602729  0.34611008    -0.05950
H738        H  0.78275432  0.36334747  0.36238466     0.07810
H739        H  0.84542984  0.32355789  0.33633356     0.09010
Cu740      Cu  0.82178475  0.39405152  0.39658005     0.44170
Cu741      Cu  0.87754911  0.35942962  0.37105574     0.41990
Cu742      Cu  0.88410772  0.41095272  0.40719337     0.43880
N743        N  0.83140084  0.42183250  0.42148987    -0.34610
N744        N  0.85485344  0.42741975  0.42430411    -0.28860
C745        C  0.85722338  0.44495950  0.44129146    -0.04960
C746        C  0.83426874  0.45112562  0.45003433     0.07260
C747        C  0.81801058  0.43613130  0.43702537     0.01050
H748        H  0.87471418  0.45244835  0.44717913     0.08700
H749        H  0.79823407  0.43537707  0.43896778     0.07780
N750        N  0.91416217  0.39283203  0.39343259    -0.36050
N751        N  0.91215414  0.37275861  0.37996821    -0.28230
C752        C  0.93484935  0.36501982  0.37368095    -0.03470
C753        C  0.95188859  0.38123840  0.38379566     0.05140
C754        C  0.93795600  0.39859430  0.39618288     0.03230
H755        H  0.93855296  0.34925853  0.36208037     0.08340
H756        H  0.94457950  0.41427127  0.40655053     0.07170
N757        N  0.84062068  0.65298961  0.36032499    -0.27220
N758        N  0.82121037  0.64129945  0.36947295    -0.35080
C759        C  0.80078828  0.65052928  0.35889241     0.01120
C760        C  0.80768667  0.66881030  0.34263936     0.07150
C761        C  0.83292145  0.66996602  0.34398420    -0.05950
H762        H  0.78227850  0.64435403  0.36275041     0.07810
H763        H  0.84490587  0.68195429  0.33353696     0.09010
Cu764      Cu  0.82162724  0.61303200  0.39577181     0.44170
Cu765      Cu  0.87744282  0.64589725  0.36789872     0.41990
Cu766      Cu  0.88367149  0.59497998  0.40508012     0.43880
N767        N  0.83115664  0.58513606  0.42056899    -0.34610
N768        N  0.85454414  0.57908240  0.42288259    -0.28860
C769        C  0.85694814  0.56157611  0.43990166    -0.04960
C770        C  0.83407761  0.55592982  0.44919205     0.07260
C771        C  0.81783267  0.57118701  0.43647222     0.01050
H772        H  0.87441658  0.55379374  0.44546977     0.08700
H773        H  0.79813328  0.57240265  0.43890329     0.07780
N774        N  0.91379837  0.61231875  0.39055449    -0.36050
N775        N  0.91197150  0.63209568  0.37662450    -0.28230
C776        C  0.93476323  0.63951691  0.37028938    -0.03470
C777        C  0.95163972  0.62330699  0.38069953     0.05140
C778        C  0.93753640  0.60646260  0.39358965     0.03230
H779        H  0.93873154  0.65529750  0.35879124     0.08340
H780        H  0.94393767  0.59133189  0.40486073     0.07170
N781        N  0.84066666  0.35496884  0.64793257    -0.27220
N782        N  0.82125569  0.36689982  0.63904465    -0.35080
C783        C  0.80089964  0.35787785  0.64988252     0.01120
C784        C  0.80787343  0.33950888  0.66603736     0.07150
C785        C  0.83305479  0.33807878  0.66436270    -0.05950
H786        H  0.78238926  0.36420296  0.64621828     0.07810
H787        H  0.84506924  0.32588107  0.67456596     0.09010
Cu788      Cu  0.82167410  0.39506832  0.61260838     0.44170
Cu789      Cu  0.87741047  0.36132075  0.63971428     0.41990
Cu790      Cu  0.88405560  0.41102183  0.60122359     0.43880
N791        N  0.83134870  0.42243497  0.58727400    -0.34610
N792        N  0.85484029  0.42764695  0.58416032    -0.28860
C793        C  0.85724501  0.44507202  0.56706634    -0.04960
C794        C  0.83427044  0.45155304  0.55855466     0.07260
C795        C  0.81796570  0.43685456  0.57180378     0.01050
H796        H  0.87476402  0.45229369  0.56098063     0.08700
H797        H  0.79815133  0.43642506  0.57011335     0.07780
N798        N  0.91408665  0.39333100  0.61561820    -0.36050
N799        N  0.91205861  0.37399132  0.63011191    -0.28230
C800        C  0.93475743  0.36644267  0.63668872    -0.03470
C801        C  0.95181810  0.38202079  0.62567001     0.05140
C802        C  0.93788665  0.39879925  0.61246583     0.03230
H803        H  0.93843691  0.35127772  0.64907612     0.08340
H804        H  0.94451525  0.41390139  0.60129101     0.07170
N805        N  0.84004649  0.65309525  0.64801195    -0.27220
N806        N  0.82080906  0.64083989  0.63919106    -0.35080
C807        C  0.80032321  0.64955983  0.65002042     0.01120
C808        C  0.80698562  0.66813228  0.66605609     0.07150
C809        C  0.83215371  0.66998417  0.66432717    -0.05950
H810        H  0.78191240  0.64295742  0.64635105     0.07810
H811        H  0.84397022  0.68242483  0.67446214     0.09010
Cu812      Cu  0.82148770  0.61282769  0.61262184     0.44170
Cu813      Cu  0.87692209  0.64703354  0.63988669     0.41990
Cu814      Cu  0.88387377  0.59838026  0.59995941     0.43880
N815        N  0.83122093  0.58608994  0.58666986    -0.34610
N816        N  0.85475748  0.58152725  0.58295461    -0.28860
C817        C  0.85720951  0.56428735  0.56568185    -0.04960
C818        C  0.83421182  0.55723463  0.55770131     0.07260
C819        C  0.81785109  0.57142347  0.57142979     0.01050
H820        H  0.87475867  0.55744112  0.55925480     0.08700
H821        H  0.79799200  0.57122087  0.57034372     0.07780
N822        N  0.91378167  0.61574485  0.61499051    -0.36050
N823        N  0.91166964  0.63463562  0.63005927    -0.28230
C824        C  0.93434905  0.64198623  0.63694745    -0.03470
C825        C  0.95147617  0.62675081  0.62553210     0.05140
C826        C  0.93759907  0.61037889  0.61177706     0.03230
H827        H  0.93797252  0.65678774  0.64978181     0.08340
H828        H  0.94427704  0.59562759  0.60016970     0.07170
N829        N  0.31538904  0.24518911  0.29841127    -0.27220
N830        N  0.29620002  0.24221970  0.31308686    -0.35080
C831        C  0.30177549  0.22535322  0.33039855     0.01120
C832        C  0.32562726  0.21761476  0.32646346     0.07150
C833        C  0.33377064  0.23055155  0.30615995    -0.05950
H834        H  0.28994205  0.22031629  0.34561901     0.07810
H835        H  0.35198233  0.23007053  0.29816825     0.09010
Cu836      Cu  0.26538000  0.26465459  0.31198860     0.44170
Cu837      Cu  0.31694859  0.27090240  0.27029130     0.41990
Cu838      Cu  0.26702216  0.31429787  0.26719887     0.43880
N839        N  0.24193198  0.29473377  0.31276926    -0.34610
N840        N  0.24298924  0.31311804  0.29679057    -0.28860
C841        C  0.22817947  0.33137168  0.30452418    -0.04960
C842        C  0.21718665  0.32397773  0.32622514     0.07260
C843        C  0.22621329  0.30071245  0.33095911     0.01050
H844        H  0.22636286  0.34907579  0.29556373     0.08700
H845        H  0.22278381  0.28958941  0.34715743     0.07780
N846        N  0.29693065  0.31515563  0.24362907    -0.36050
N847        N  0.31564602  0.29971475  0.24535861    -0.28230
C848        C  0.33364511  0.30716074  0.23010235    -0.03470
C849        C  0.32568014  0.32806648  0.21804993     0.05140
C850        C  0.30237910  0.33267196  0.22697309     0.03230
H851        H  0.35151801  0.29854848  0.22862406     0.08340
H852        H  0.29090365  0.34841904  0.22286949     0.07170
C853        C  0.03072223  0.62514752  0.62762998    -0.05390
C854        C  0.01822786  0.64752309  0.63106923    -0.32820
C855        C  0.99241510  0.64841766  0.63108835     0.36430
C856        C  0.97868395  0.62667720  0.62764544    -0.05750
C857        C  0.99124786  0.60425040  0.62512252    -0.32720
C858        C  0.01692339  0.60333181  0.62503570     0.36330
H859        H  0.02847042  0.66451642  0.63294834     0.16700
O860        O  0.98091185  0.67079030  0.63293169    -0.60220
H861        H  0.98113961  0.58718459  0.62317989     0.16720
O862        O  0.02831048  0.58085441  0.62335021    -0.60320
H863        H  0.02542718  0.57519429  0.60617522     0.43710
H864        H  0.98154538  0.67504967  0.65072328     0.43670
C865        C  0.03102450  0.38374267  0.62798084    -0.05390
C866        C  0.01859037  0.36122629  0.63060540    -0.32820
C867        C  0.99278419  0.36026602  0.63051306     0.36430
C868        C  0.97901041  0.38208051  0.62777814    -0.05750
C869        C  0.99150858  0.40461055  0.62604089    -0.32720
C870        C  0.01717547  0.40559757  0.62607065     0.36330
H871        H  0.02887694  0.34420621  0.63194042     0.16700
O872        O  0.98133225  0.33781622  0.63155822    -0.60220
H873        H  0.98135462  0.42170530  0.62465065     0.16720
O874        O  0.02850175  0.42814887  0.62518938    -0.60320
H875        H  0.02566459  0.43437786  0.60820468     0.43710
H876        H  0.98196417  0.33293257  0.64918860     0.43670
C877        C  0.97886526  0.62392688  0.37924322    -0.05390
C878        C  0.99129693  0.64653925  0.37764560    -0.32820
C879        C  0.01708590  0.64751628  0.37825413     0.36430
C880        C  0.03087886  0.62560993  0.38019142    -0.05750
C881        C  0.01838396  0.60302004  0.38095037    -0.32720
C882        C  0.99274968  0.60202350  0.38033595     0.36330
H883        H  0.98101098  0.66358981  0.37681560     0.16700
O884        O  0.02847873  0.67001465  0.37785119    -0.60220
H885        H  0.02852423  0.58588915  0.38189505     0.16720
O886        O  0.98154155  0.57941845  0.38063963    -0.60320
H887        H  0.97877558  0.57520340  0.36304184     0.43710
H888        H  0.03043191  0.67471502  0.39543560     0.43670
C889        C  0.97905869  0.38128620  0.38153510    -0.05390
C890        C  0.99151698  0.40390195  0.38204011    -0.32820
C891        C  0.01714401  0.40492626  0.38139432     0.36430
C892        C  0.03104753  0.38303084  0.38053668    -0.05750
C893        C  0.01864852  0.36038273  0.37918131    -0.32720
C894        C  0.99286506  0.35937805  0.37981538     0.36330
H895        H  0.98135049  0.42102506  0.38281359     0.16700
O896        O  0.02832982  0.42754485  0.38144040    -0.60220
H897        H  0.02895912  0.34334041  0.37852930     0.16720
O898        O  0.98149080  0.33686588  0.37966255    -0.60320
H899        H  0.97960238  0.33234997  0.39729798     0.43710
H900        H  0.03103306  0.43156960  0.36379504     0.43670
C901        C  0.62820449  0.97805812  0.62552041    -0.05390
C902        C  0.63120208  0.99063743  0.64798361    -0.32820
C903        C  0.63096021  0.01645684  0.64879168     0.36430
C904        C  0.62797381  0.03011492  0.62684782    -0.05750
C905        C  0.62584118  0.01746195  0.60435922    -0.32720
C906        C  0.62609134  0.99180055  0.60352878     0.36330
H907        H  0.63285348  0.98045447  0.66509484     0.16700
O908        O  0.63275767  0.02802052  0.67120899    -0.60220
H909        H  0.62408812  0.02749409  0.58717007     0.16720
O910        O  0.62442836  0.98042854  0.58098991    -0.60320
H911        H  0.64166814  0.97744686  0.57585301     0.43710
H912        H  0.61555862  0.03018798  0.67686979     0.43670
C913        C  0.38282884  0.03039399  0.62816658    -0.05390
C914        C  0.36030226  0.01799803  0.62556443    -0.32820
C915        C  0.35938796  0.99215781  0.62495241     0.36430
C916        C  0.38124776  0.97834193  0.62692961    -0.05750
C917        C  0.40361006  0.99079738  0.63029469    -0.32720
C918        C  0.40451284  0.01646935  0.63112274     0.36330
H919        H  0.34345028  0.02834910  0.62312927     0.16700
O920        O  0.33730987  0.98071896  0.62074179    -0.60220
H921        H  0.42058708  0.98057347  0.63237955     0.16720
O922        O  0.42677474  0.02770636  0.63493117    -0.60320
H923        H  0.42773248  0.03050956  0.65299702     0.43710
H924        H  0.32865416  0.98103228  0.63683858     0.43670
C925        C  0.62753242  0.97807677  0.38366310    -0.05390
C926        C  0.63146496  0.99061651  0.36133226    -0.32820
C927        C  0.63144636  0.01644794  0.36047898     0.36430
C928        C  0.62745676  0.03013438  0.38221446    -0.05750
C929        C  0.62441733  0.01753547  0.40461742    -0.32720
C930        C  0.62438584  0.99183784  0.40549641     0.36330
H931        H  0.63376218  0.98039322  0.34432636     0.16700
O932        O  0.63378652  0.02801332  0.33811399    -0.60220
H933        H  0.62203525  0.02763590  0.42168537     0.16720
O934        O  0.62220719  0.98039180  0.42797111    -0.60320
H935        H  0.60497095  0.98322223  0.43323542     0.43710
H936        H  0.65159711  0.02739662  0.33425794     0.43670
C937        C  0.38336018  0.03037840  0.38114941    -0.05390
C938        C  0.36102170  0.01790344  0.37751667    -0.32820
C939        C  0.36008528  0.99207348  0.37759357     0.36430
C940        C  0.38175106  0.97830669  0.38133063    -0.05750
C941        C  0.40415756  0.99084851  0.38400682    -0.32720
C942        C  0.40511439  0.01654489  0.38400340     0.36330
H943        H  0.34407769  0.02817782  0.37543679     0.16700
O944        O  0.33772751  0.98060221  0.37556399    -0.60220
H945        H  0.42117377  0.98071149  0.38615713     0.16720
O946        O  0.42757062  0.02791486  0.38588282    -0.60320
H947        H  0.43310153  0.02504782  0.40310651     0.43710
H948        H  0.33360648  0.98119580  0.35773343     0.43670
C949        C  0.62815736  0.62646837  0.03026307    -0.05390
C950        C  0.62912034  0.60397029  0.01757321    -0.32820
C951        C  0.62947275  0.60318969  0.99182822     0.36430
C952        C  0.62853586  0.62519571  0.97804602    -0.05750
C953        C  0.62841925  0.64778625  0.99066698    -0.32720
C954        C  0.62808194  0.64854735  0.01656508     0.36330
H955        H  0.62972660  0.58676156  0.02764834     0.16700
O956        O  0.63090491  0.58071261  0.98040764    -0.60220
H957        H  0.62768160  0.66490934  0.98045438     0.16720
O958        O  0.62675095  0.67092630  0.02816728    -0.60320
H959        H  0.60893070  0.67413684  0.03032525     0.43710
H960        H  0.64868386  0.57800266  0.97740466     0.43670
C961        C  0.62703821  0.38393313  0.97810114    -0.05390
C962        C  0.63554094  0.36302699  0.99075147    -0.32820
C963        C  0.63608606  0.36243192  0.01664535     0.36430
C964        C  0.62806031  0.38300799  0.03028486    -0.05750
C965        C  0.62047908  0.40419533  0.01754660    -0.32720
C966        C  0.61984647  0.40478577  0.99177790     0.36330
H967        H  0.64102506  0.34677252  0.98057562     0.16700
O968        O  0.64300817  0.34114673  0.02833070    -0.60220
H969        H  0.61493651  0.42051440  0.02758036     0.16720
O970        O  0.61305561  0.42618832  0.98016708    -0.60320
H971        H  0.59514876  0.42790437  0.98319209     0.43710
H972        H  0.66121924  0.34088947  0.02742691     0.43670
C973        C  0.38318816  0.62819988  0.03036019    -0.05390
C974        C  0.40553713  0.62628347  0.01759430    -0.32820
C975        C  0.40621449  0.62611947  0.99182504     0.36430
C976        C  0.38422155  0.62802182  0.97814881    -0.05750
C977        C  0.36189752  0.63089859  0.99083966    -0.32720
C978        C  0.36124784  0.63099544  0.01675331     0.36330
H979        H  0.42272652  0.62486670  0.02761448     0.16700
O980        O  0.42860129  0.62502416  0.98021890    -0.60220
H981        H  0.34478440  0.63224975  0.98067793     0.16720
O982        O  0.33896511  0.63226199  0.02847826    -0.60320
H983        H  0.33420187  0.64987108  0.02781155     0.43710
H984        H  0.43481128  0.60810736  0.98319234     0.43670
C985        C  0.38258661  0.38131537  0.03044714    -0.05390
C986        C  0.40505546  0.38067917  0.01775807    -0.32820
C987        C  0.40579171  0.38013838  0.99201510     0.36430
C988        C  0.38376744  0.38055099  0.97824759    -0.05750
C989        C  0.36122251  0.38034557  0.99087414    -0.32720
C990        C  0.36050630  0.38087812  0.01677006     0.36330
H991        H  0.42226857  0.38049258  0.02783717     0.16700
O992        O  0.42824205  0.37906180  0.98057344    -0.60220
H993        H  0.34409172  0.38069876  0.98065991     0.16720
O994        O  0.33815772  0.38192188  0.02839021    -0.60320
H995        H  0.33465925  0.39972013  0.03044582     0.43710
H996        H  0.43128732  0.36129947  0.97767058     0.43670
loop_ 
_geom_bond_atom_site_label_1 
_geom_bond_atom_site_label_2 
_geom_bond_distance 
_geom_bond_site_symmetry_2 
_ccdc_geom_bond_type 
N1            N2   1.323       .  A
N1            C5   1.345       .  A
N1           Cu9   2.070       .  S
N2            C3   1.345       .  A
N2           Cu8   2.073       .  S
C3            C4   1.380       .  A
C3            H6   1.082       .  S
C4            C5   1.379       .  A
C4          C564   1.462       .  S
C5            H7   1.082       .  S
Cu8          N11   2.072       .  S
Cu9          N19   2.070       .  S
Cu10         N12   2.070       .  S
Cu10         N18   2.070       .  S
N11          N12   1.323       .  A
N11          C15   1.345       .  A
N12          C13   1.344       .  A
C13          C14   1.379       .  A
C13          H16   1.082       .  S
C14          C15   1.380       .  A
C14         C344   1.463       .  S
C15          H17   1.082       .  S
N18          N19   1.322       .  A
N18          C22   1.344       .  A
N19          C20   1.345       .  A
C20          C21   1.380       .  A
C20          H23   1.082       .  S
C21          C22   1.380       .  A
C21         C808   1.462       .  S
C22          H24   1.082       .  S
N25          N26   1.323       .  A
N25          C29   1.345       .  A
N25         Cu33   2.069       .  S
N26          C27   1.345       .  A
N26         Cu32   2.074       .  S
C27          C28   1.380       .  A
C27          H30   1.082       .  S
C28          C29   1.379       .  A
C28         C650   1.463       .  S
C29          H31   1.082       .  S
Cu32         N35   2.074       .  S
Cu33         N43   2.069       .  S
Cu34         N36   2.068       .  S
Cu34         N42   2.067       .  S
N35          N36   1.323       .  A
N35          C39   1.345       .  A
N36          C37   1.344       .  A
C37          C38   1.379       .  A
C37          H40   1.082       .  S
C38          C39   1.381       .  A
C38         C492   1.462       .  S
C39          H41   1.082       .  S
N42          N43   1.322       .  A
N42          C46   1.344       .  A
N43          C44   1.344       .  A
C44          C45   1.379       .  A
C44          H47   1.082       .  S
C45          C46   1.379       .  A
C45         C186   1.461       .  S
C46          H48   1.082       .  S
N49          N50   1.323       .  A
N49          C53   1.344       .  A
N49         Cu57   2.067       .  S
N50          C51   1.345       .  A
N50         Cu56   2.070       .  S
C51          C52   1.380       .  A
C51          H54   1.082       .  S
C52          C53   1.378       .  A
C52         C320   1.460       .  S
C53          H55   1.082       .  S
Cu56         N59   2.070       .  S
Cu57         N67   2.067       .  S
Cu58         N60   2.070       .  S
Cu58         N66   2.070       .  S
N59          N60   1.323       .  A
N59          C63   1.345       .  A
N60          C61   1.345       .  A
C61          C62   1.379       .  A
C61          H64   1.082       .  S
C62          C63   1.379       .  A
C62         C454   1.461       .  S
C63          H65   1.082       .  S
N66          N67   1.322       .  A
N66          C70   1.345       .  A
N67          C68   1.344       .  A
C68          C69   1.379       .  A
C68          H71   1.082       .  S
C69          C70   1.379       .  A
C69         C784   1.461       .  S
C70          H72   1.082       .  S
N73          N74   1.323       .  A
N73          C77   1.345       .  A
N73         Cu81   2.073       .  S
N74          C75   1.345       .  A
N74         Cu80   2.071       .  S
C75          C76   1.379       .  A
C75          H78   1.082       .  S
C76          C77   1.380       .  A
C76         C674   1.463       .  S
C77          H79   1.082       .  S
Cu80         N83   2.070       .  S
Cu81         N91   2.073       .  S
Cu82         N84   2.072       .  S
Cu82         N90   2.072       .  S
N83          N84   1.322       .  A
N83          C87   1.345       .  A
N84          C85   1.345       .  A
C85          C86   1.380       .  A
C85          H88   1.082       .  S
C86          C87   1.380       .  A
C86         C272   1.462       .  S
C87          H89   1.082       .  S
N90          N91   1.323       .  A
N90          C94   1.345       .  A
N91          C92   1.345       .  A
C92          C93   1.381       .  A
C92          H95   1.082       .  S
C93          C94   1.380       .  A
C93         C430   1.464       .  S
C94          H96   1.082       .  S
N97          N98   1.323       .  A
N97         C101   1.345       .  A
N97        Cu105   2.071       .  S
N98          C99   1.346       .  A
N98        Cu104   2.074       .  S
C99         C100   1.381       .  A
C99         H102   1.082       .  S
C100        C101   1.380       .  A
C100        C540   1.464       .  S
C101        H103   1.082       .  S
Cu104       N107   2.075       .  S
Cu105       N115   2.071       .  S
Cu106       N108   2.070       .  S
Cu106       N114   2.070       .  S
N107        N108   1.323       .  A
N107        C111   1.346       .  A
N108        C109   1.345       .  A
C109        C110   1.379       .  A
C109        H112   1.082       .  S
C110        C111   1.380       .  A
C110        C698   1.463       .  S
C111        H113   1.082       .  S
N114        N115   1.322       .  A
N114        C118   1.345       .  A
N115        C116   1.345       .  A
C116        C117   1.380       .  A
C116        H119   1.082       .  S
C117        C118   1.380       .  A
C117        C296   1.462       .  S
C118        H120   1.082       .  S
N121        N122   1.323       .  A
N121        C125   1.344       .  A
N121       Cu129   2.067       .  S
N122        C123   1.345       .  A
N122       Cu128   2.070       .  S
C123        C124   1.380       .  A
C123        H126   1.082       .  S
C124        C125   1.379       .  A
C124        C736   1.461       .  S
C125        H127   1.082       .  S
Cu128       N131   2.071       .  S
Cu129       N139   2.067       .  S
Cu130       N132   2.069       .  S
Cu130       N138   2.069       .  S
N131        N132   1.323       .  A
N131        C135   1.345       .  A
N132        C133   1.345       .  A
C133        C134   1.379       .  A
C133        H136   1.082       .  S
C134        C135   1.380       .  A
C134        C406   1.461       .  S
C135        H137   1.082       .  S
N138        N139   1.323       .  A
N138        C142   1.345       .  A
N139        C140   1.344       .  A
C140        C141   1.379       .  A
C140        H143   1.082       .  S
C141        C142   1.379       .  A
C141        C210   1.460       .  S
C142        H144   1.082       .  S
O145       Cu153   2.064       .  S
O145        C155   1.283       .  A
O146       Cu153   2.062       .  S
O146        C156   1.283       .  A
O147       Cu153   2.065       .  S
O147        C157   1.283       .  A
O148       Cu153   2.065       .  S
O148        C158   1.283       .  A
O149       Cu154   1.954       .  S
O149        C158   1.272       .  A
O150       Cu154   1.954       .  S
O150        C157   1.272       .  A
O151       Cu154   1.953       .  S
O151        C156   1.272       .  A
O152       Cu154   1.955       .  S
O152        C155   1.272       .  A
Cu153      Cu154   2.369       .  S
C155        C196   1.474       .  S
C156        C220   1.473       .  S
C157        C244   1.474       .  S
C158        C172   1.474       .  S
N159        N160   1.328       .  A
N159        C163   1.345       .  A
N159       Cu167   2.077       .  S
N160        C161   1.346       .  A
N160       Cu166   2.096       .  S
C161        C162   1.380       .  A
C161        H164   1.082       .  S
C162        C163   1.376       .  A
C162        C849   1.462       .  S
C163        H165   1.082       .  S
Cu166       N169   2.091       .  S
Cu167       N177   2.074       .  S
Cu168       N170   2.049       .  S
Cu168       N176   2.050       .  S
N169        N170   1.320       .  A
N169        C173   1.358       .  A
N170        C171   1.332       .  A
C171        C172   1.378       .  A
C171        H174   1.082       .  S
C172        C173   1.393       .  A
C173        H175   1.082       .  S
N176        N177   1.317       .  A
N176        C180   1.340       .  A
N177        C178   1.348       .  A
C178        C179   1.391       .  A
C178        H181   1.081       .  S
C179        C180   1.384       .  A
C179        C985   1.482       .  S
C180        H182   1.082       .  S
N183        N184   1.328       .  A
N183        C187   1.344       .  A
N183       Cu191   2.075       .  S
N184        C185   1.347       .  A
N184       Cu190   2.097       .  S
C185        C186   1.380       .  A
C185        H188   1.082       .  S
C186        C187   1.375       .  A
C187        H189   1.082       .  S
Cu190       N193   2.093       .  S
Cu191       N201   2.071       .  S
Cu192       N194   2.048       .  S
Cu192       N200   2.049       .  S
N193        N194   1.320       .  A
N193        C197   1.358       .  A
N194        C195   1.331       .  A
C195        C196   1.377       .  A
C195        H198   1.082       .  S
C196        C197   1.394       .  A
C197        H199   1.082       .  S
N200        N201   1.316       .  A
N200        C204   1.339       .  A
N201        C202   1.348       .  A
C202        C203   1.391       .  A
C202        H205   1.081       .  S
C203        C204   1.384       .  A
C203        C973   1.483       .  S
C204        H206   1.082       .  S
N207        N208   1.328       .  A
N207        C211   1.344       .  A
N207       Cu215   2.073       .  S
N208        C209   1.347       .  A
N208       Cu214   2.097       .  S
C209        C210   1.380       .  A
C209        H212   1.082       .  S
C210        C211   1.374       .  A
C211        H213   1.082       .  S
Cu214       N217   2.092       .  S
Cu215       N225   2.070       .  S
Cu216       N218   2.045       .  S
Cu216       N224   2.046       .  S
N217        N218   1.320       .  A
N217        C221   1.358       .  A
N218        C219   1.331       .  A
C219        C220   1.377       .  A
C219        H222   1.082       .  S
C220        C221   1.393       .  A
C221        H223   1.082       .  S
N224        N225   1.316       .  A
N224        C228   1.339       .  A
N225        C226   1.348       .  A
C226        C227   1.391       .  A
C226        H229   1.081       .  S
C227        C228   1.384       .  A
C227        C964   1.482       .  S
C228        H230   1.082       .  S
N231        N232   1.328       .  A
N231        C235   1.345       .  A
N231       Cu239   2.077       .  S
N232        C233   1.347       .  A
N232       Cu238   2.097       .  S
C233        C234   1.381       .  A
C233        H236   1.082       .  S
C234        C235   1.376       .  A
C234        C598   1.462       .  S
C235        H237   1.082       .  S
Cu238       N241   2.092       .  S
Cu239       N249   2.074       .  S
Cu240       N242   2.050       .  S
Cu240       N248   2.051       .  S
N241        N242   1.320       .  A
N241        C245   1.358       .  A
N242        C243   1.332       .  A
C243        C244   1.378       .  A
C243        H246   1.082       .  S
C244        C245   1.393       .  A
C245        H247   1.082       .  S
N248        N249   1.317       .  A
N248        C252   1.340       .  A
N249        C250   1.348       .  A
C250        C251   1.391       .  A
C250        H253   1.081       .  S
C251        C252   1.384       .  A
C251        C949   1.483       .  S
C252        H254   1.082       .  S
O255       Cu263   1.954       .  S
O255        C265   1.272       .  A
O256       Cu263   1.953       .  S
O256        C266   1.272       .  A
O257       Cu263   1.954       .  S
O257        C267   1.272       .  A
O258       Cu263   1.953       .  S
O258        C268   1.272       .  A
O259       Cu264   2.065       .  S
O259        C268   1.283       .  A
O260       Cu264   2.065       .  S
O260        C267   1.283       .  A
O261       Cu264   2.063       .  S
O261        C266   1.283       .  A
O262       Cu264   2.064       .  S
O262        C265   1.283       .  A
Cu263      Cu264   2.369       .  S
C265        C306   1.474       .  S
C266        C330   1.473       .  S
C267        C354   1.474       .  S
C268        C282   1.474       .  S
N269        N270   1.329       .  A
N269        C273   1.345       .  A
N269       Cu277   2.079       .  S
N270        C271   1.346       .  A
N270       Cu276   2.096       .  S
C271        C272   1.380       .  A
C271        H274   1.082       .  S
C272        C273   1.376       .  A
C273        H275   1.082       .  S
Cu276       N279   2.091       .  S
Cu277       N287   2.076       .  S
Cu278       N280   2.048       .  S
Cu278       N286   2.049       .  S
N279        N280   1.320       .  A
N279        C283   1.358       .  A
N280        C281   1.331       .  A
C281        C282   1.377       .  A
C281        H284   1.082       .  S
C282        C283   1.393       .  A
C283        H285   1.082       .  S
N286        N287   1.317       .  A
N286        C290   1.340       .  A
N287        C288   1.348       .  A
C288        C289   1.390       .  A
C288        H291   1.082       .  S
C289        C290   1.384       .  A
C289        C988   1.482       .  S
C290        H292   1.081       .  S
N293        N294   1.329       .  A
N293        C297   1.345       .  A
N293       Cu301   2.079       .  S
N294        C295   1.346       .  A
N294       Cu300   2.098       .  S
C295        C296   1.380       .  A
C295        H298   1.082       .  S
C296        C297   1.376       .  A
C297        H299   1.082       .  S
Cu300       N303   2.093       .  S
Cu301       N311   2.075       .  S
Cu302       N304   2.044       .  S
Cu302       N310   2.045       .  S
N303        N304   1.319       .  A
N303        C307   1.358       .  A
N304        C305   1.331       .  A
C305        C306   1.377       .  A
C305        H308   1.082       .  S
C306        C307   1.394       .  A
C307        H309   1.082       .  S
N310        N311   1.316       .  A
N310        C314   1.339       .  A
N311        C312   1.348       .  A
C312        C313   1.391       .  A
C312        H315   1.082       .  S
C313        C314   1.383       .  A
C313        C976   1.482       .  S
C314        H316   1.081       .  S
N317        N318   1.328       .  A
N317        C321   1.344       .  A
N317       Cu325   2.074       .  S
N318        C319   1.347       .  A
N318       Cu324   2.098       .  S
C319        C320   1.381       .  A
C319        H322   1.082       .  S
C320        C321   1.374       .  A
C321        H323   1.082       .  S
Cu324       N327   2.093       .  S
Cu325       N335   2.070       .  S
Cu326       N328   2.046       .  S
Cu326       N334   2.047       .  S
N327        N328   1.320       .  A
N327        C331   1.358       .  A
N328        C329   1.331       .  A
C329        C330   1.377       .  A
C329        H332   1.082       .  S
C330        C331   1.393       .  A
C331        H333   1.082       .  S
N334        N335   1.316       .  A
N334        C338   1.339       .  A
N335        C336   1.347       .  A
C336        C337   1.390       .  A
C336        H339   1.082       .  S
C337        C338   1.384       .  A
C337        C961   1.481       .  S
C338        H340   1.081       .  S
N341        N342   1.328       .  A
N341        C345   1.345       .  A
N341       Cu349   2.078       .  S
N342        C343   1.346       .  A
N342       Cu348   2.097       .  S
C343        C344   1.381       .  A
C343        H346   1.082       .  S
C344        C345   1.376       .  A
C345        H347   1.082       .  S
Cu348       N351   2.092       .  S
Cu349       N359   2.075       .  S
Cu350       N352   2.048       .  S
Cu350       N358   2.049       .  S
N351        N352   1.320       .  A
N351        C355   1.358       .  A
N352        C353   1.331       .  A
C353        C354   1.378       .  A
C353        H356   1.082       .  S
C354        C355   1.394       .  A
C355        H357   1.082       .  S
N358        N359   1.317       .  A
N358        C362   1.340       .  A
N359        C360   1.348       .  A
C360        C361   1.390       .  A
C360        H363   1.082       .  S
C361        C362   1.384       .  A
C361        C952   1.483       .  S
C362        H364   1.081       .  S
O365       Cu373   2.063       .  S
O365        C375   1.283       .  A
O366       Cu373   2.065       .  S
O366        C376   1.283       .  A
O367       Cu373   2.066       .  S
O367        C377   1.284       .  A
O368       Cu373   2.066       .  S
O368        C378   1.283       .  A
O369       Cu374   1.953       .  S
O369        C378   1.272       .  A
O370       Cu374   1.954       .  S
O370        C377   1.271       .  A
O371       Cu374   1.954       .  S
O371        C376   1.272       .  A
O372       Cu374   1.953       .  S
O372        C375   1.272       .  A
Cu373      Cu374   2.369       .  S
C375        C464   1.473       .  S
C376        C392   1.474       .  S
C377        C440   1.475       .  S
C378        C416   1.475       .  S
N379        N380   1.329       .  A
N379        C383   1.345       .  A
N379       Cu387   2.079       .  S
N380        C381   1.347       .  A
N380       Cu386   2.100       .  S
C381        C382   1.381       .  A
C381        H384   1.082       .  S
C382        C383   1.375       .  A
C382        C832   1.462       .  S
C383        H385   1.082       .  S
Cu386       N389   2.095       .  S
Cu387       N397   2.075       .  S
Cu388       N390   2.045       .  S
Cu388       N396   2.046       .  S
N389        N390   1.320       .  A
N389        C393   1.359       .  A
N390        C391   1.331       .  A
C391        C392   1.377       .  A
C391        H394   1.082       .  S
C392        C393   1.394       .  A
C393        H395   1.082       .  S
N396        N397   1.316       .  A
N396        C400   1.339       .  A
N397        C398   1.348       .  A
C398        C399   1.391       .  A
C398        H401   1.082       .  S
C399        C400   1.384       .  A
C399        C937   1.483       .  S
C400        H402   1.081       .  S
N403        N404   1.329       .  A
N403        C407   1.344       .  A
N403       Cu411   2.075       .  S
N404        C405   1.347       .  A
N404       Cu410   2.100       .  S
C405        C406   1.381       .  A
C405        H408   1.082       .  S
C406        C407   1.374       .  A
C407        H409   1.082       .  S
Cu410       N413   2.095       .  S
Cu411       N421   2.071       .  S
Cu412       N414   2.048       .  S
Cu412       N420   2.049       .  S
N413        N414   1.320       .  A
N413        C417   1.359       .  A
N414        C415   1.331       .  A
C415        C416   1.377       .  A
C415        H418   1.082       .  S
C416        C417   1.394       .  A
C417        H419   1.082       .  S
N420        N421   1.316       .  A
N420        C424   1.340       .  A
N421        C422   1.348       .  A
C422        C423   1.391       .  A
C422        H425   1.081       .  S
C423        C424   1.384       .  A
C423        C928   1.483       .  S
C424        H426   1.082       .  S
N427        N428   1.328       .  A
N427        C431   1.345       .  A
N427       Cu435   2.081       .  S
N428        C429   1.346       .  A
N428       Cu434   2.095       .  S
C429        C430   1.380       .  A
C429        H432   1.082       .  S
C430        C431   1.377       .  A
C431        H433   1.082       .  S
Cu434       N437   2.090       .  S
Cu435       N445   2.078       .  S
Cu436       N438   2.053       .  S
Cu436       N444   2.054       .  S
N437        N438   1.320       .  A
N437        C441   1.358       .  A
N438        C439   1.332       .  A
C439        C440   1.378       .  A
C439        H442   1.082       .  S
C440        C441   1.393       .  A
C441        H443   1.082       .  S
N444        N445   1.318       .  A
N444        C448   1.341       .  A
N445        C446   1.349       .  A
C446        C447   1.390       .  A
C446        H449   1.082       .  S
C447        C448   1.384       .  A
C447        C913   1.483       .  S
C448        H450   1.082       .  S
N451        N452   1.329       .  A
N451        C455   1.344       .  A
N451       Cu459   2.076       .  S
N452        C453   1.347       .  A
N452       Cu458   2.098       .  S
C453        C454   1.381       .  A
C453        H456   1.082       .  S
C454        C455   1.375       .  A
C455        H457   1.082       .  S
Cu458       N461   2.093       .  S
Cu459       N469   2.072       .  S
Cu460       N462   2.046       .  S
Cu460       N468   2.048       .  S
N461        N462   1.320       .  A
N461        C465   1.358       .  A
N462        C463   1.331       .  A
C463        C464   1.377       .  A
C463        H466   1.082       .  S
C464        C465   1.394       .  A
C465        H467   1.082       .  S
N468        N469   1.316       .  A
N468        C472   1.339       .  A
N469        C470   1.348       .  A
C470        C471   1.391       .  A
C470        H473   1.081       .  S
C471        C472   1.384       .  A
C471        C904   1.483       .  S
C472        H474   1.082       .  S
O475       Cu483   1.954       .  S
O475        C485   1.271       .  A
O476       Cu483   1.953       .  S
O476        C486   1.272       .  A
O477       Cu483   1.954       .  S
O477        C487   1.272       .  A
O478       Cu483   1.953       .  S
O478        C488   1.272       .  A
O479       Cu484   2.065       .  S
O479        C488   1.283       .  A
O480       Cu484   2.066       .  S
O480        C487   1.283       .  A
O481       Cu484   2.066       .  S
O481        C486   1.283       .  A
O482       Cu484   2.066       .  S
O482        C485   1.284       .  A
Cu483      Cu484   2.368       .  S
C485        C550   1.475       .  S
C486        C526   1.475       .  S
C487        C502   1.475       .  S
C488        C574   1.474       .  S
N489        N490   1.329       .  A
N489        C493   1.344       .  A
N489       Cu497   2.076       .  S
N490        C491   1.347       .  A
N490       Cu496   2.100       .  S
C491        C492   1.381       .  A
C491        H494   1.082       .  S
C492        C493   1.375       .  A
C493        H495   1.082       .  S
Cu496       N499   2.095       .  S
Cu497       N507   2.073       .  S
Cu498       N500   2.048       .  S
Cu498       N506   2.049       .  S
N499        N500   1.320       .  A
N499        C503   1.359       .  A
N500        C501   1.331       .  A
C501        C502   1.377       .  A
C501        H504   1.082       .  S
C502        C503   1.394       .  A
C503        H505   1.082       .  S
N506        N507   1.316       .  A
N506        C510   1.339       .  A
N507        C508   1.348       .  A
C508        C509   1.391       .  A
C508        H511   1.081       .  S
C509        C510   1.384       .  A
C509        C940   1.484       .  S
C510        H512   1.082       .  S
N513        N514   1.329       .  A
N513        C517   1.344       .  A
N513       Cu521   2.077       .  S
N514        C515   1.347       .  A
N514       Cu520   2.102       .  S
C515        C516   1.381       .  A
C515        H518   1.082       .  S
C516        C517   1.375       .  A
C516        C605   1.462       .  S
C517        H519   1.082       .  S
Cu520       N523   2.097       .  S
Cu521       N531   2.074       .  S
Cu522       N524   2.045       .  S
Cu522       N530   2.046       .  S
N523        N524   1.320       .  A
N523        C527   1.359       .  A
N524        C525   1.330       .  A
C525        C526   1.377       .  A
C525        H528   1.082       .  S
C526        C527   1.395       .  A
C527        H529   1.082       .  S
N530        N531   1.316       .  A
N530        C534   1.339       .  A
N531        C532   1.348       .  A
C532        C533   1.391       .  A
C532        H535   1.082       .  S
C533        C534   1.384       .  A
C533        C925   1.483       .  S
C534        H536   1.081       .  S
N537        N538   1.328       .  A
N537        C541   1.345       .  A
N537       Cu545   2.081       .  S
N538        C539   1.346       .  A
N538       Cu544   2.095       .  S
C539        C540   1.381       .  A
C539        H542   1.082       .  S
C540        C541   1.377       .  A
C541        H543   1.082       .  S
Cu544       N547   2.091       .  S
Cu545       N555   2.078       .  S
Cu546       N548   2.053       .  S
Cu546       N554   2.054       .  S
N547        N548   1.320       .  A
N547        C551   1.358       .  A
N548        C549   1.332       .  A
C549        C550   1.378       .  A
C549        H552   1.082       .  S
C550        C551   1.393       .  A
C551        H553   1.082       .  S
N554        N555   1.318       .  A
N554        C558   1.341       .  A
N555        C556   1.349       .  A
C556        C557   1.391       .  A
C556        H559   1.081       .  S
C557        C558   1.384       .  A
C557        C916   1.483       .  S
C558        H560   1.082       .  S
N561        N562   1.329       .  A
N561        C565   1.344       .  A
N561       Cu569   2.077       .  S
N562        C563   1.347       .  A
N562       Cu568   2.101       .  S
C563        C564   1.381       .  A
C563        H566   1.082       .  S
C564        C565   1.375       .  A
C565        H567   1.082       .  S
Cu568       N571   2.096       .  S
Cu569       N579   2.073       .  S
Cu570       N572   2.045       .  S
Cu570       N578   2.046       .  S
N571        N572   1.320       .  A
N571        C575   1.359       .  A
N572        C573   1.331       .  A
C573        C574   1.377       .  A
C573        H576   1.082       .  S
C574        C575   1.394       .  A
C575        H577   1.082       .  S
N578        N579   1.316       .  A
N578        C582   1.339       .  A
N579        C580   1.348       .  A
C580        C581   1.391       .  A
C580        H583   1.082       .  S
C581        C582   1.384       .  A
C581        C901   1.483       .  S
C582        H584   1.081       .  S
N585        N586   1.322       .  A
N585        C589   1.345       .  A
N585       Cu593   2.069       .  S
N586        C587   1.345       .  A
N586       Cu592   2.070       .  S
C587        C588   1.380       .  A
C587        H590   1.082       .  S
C588        C589   1.380       .  A
C588        C760   1.461       .  S
C589        H591   1.082       .  S
Cu592       N595   2.070       .  S
Cu593       N603   2.070       .  S
Cu594       N596   2.072       .  S
Cu594       N602   2.073       .  S
N595        N596   1.323       .  A
N595        C599   1.345       .  A
N596        C597   1.345       .  A
C597        C598   1.380       .  A
C597        H600   1.082       .  S
C598        C599   1.379       .  A
C599        H601   1.082       .  S
N602        N603   1.323       .  A
N602        C606   1.345       .  A
N603        C604   1.345       .  A
C604        C605   1.379       .  A
C604        H607   1.082       .  S
C605        C606   1.380       .  A
C606        H608   1.082       .  S
O609       Cu617   1.954       .  S
O609        C619   1.272       .  A
O610       Cu617   1.954       .  S
O610        C620   1.272       .  A
O611       Cu617   1.954       .  S
O611        C621   1.272       .  A
O612       Cu617   1.954       .  S
O612        C622   1.272       .  A
O613       Cu618   2.066       .  S
O613        C622   1.283       .  A
O614       Cu618   2.067       .  S
O614        C621   1.283       .  A
O615       Cu618   2.066       .  S
O615        C620   1.283       .  A
O616       Cu618   2.068       .  S
O616        C619   1.283       .  A
Cu617      Cu618   2.368       .  S
C619        C708   1.476       .  S
C620        C636   1.475       .  S
C621        C684   1.476       .  S
C622        C660   1.475       .  S
N623        N624   1.329       .  A
N623        C627   1.344       .  A
N623       Cu631   2.078       .  S
N624        C625   1.347       .  A
N624       Cu630   2.101       .  S
C625        C626   1.381       .  A
C625        H628   1.082       .  S
C626        C627   1.375       .  A
C626        C842   1.463       .  S
C627        H629   1.082       .  S
Cu630       N633   2.096       .  S
Cu631       N641   2.074       .  S
Cu632       N634   2.047       .  S
Cu632       N640   2.048       .  S
N633        N634   1.320       .  A
N633        C637   1.359       .  A
N634        C635   1.331       .  A
C635        C636   1.377       .  A
C635        H638   1.082       .  S
C636        C637   1.394       .  A
C637        H639   1.082       .  S
N640        N641   1.317       .  A
N640        C644   1.340       .  A
N641        C642   1.348       .  A
C642        C643   1.391       .  A
C642        H645   1.082       .  S
C643        C644   1.384       .  A
C643        C892   1.483       .  S
C644        H646   1.081       .  S
N647        N648   1.328       .  A
N647        C651   1.344       .  A
N647       Cu655   2.077       .  S
N648        C649   1.347       .  A
N648       Cu654   2.100       .  S
C649        C650   1.381       .  A
C649        H652   1.082       .  S
C650        C651   1.375       .  A
C651        H653   1.082       .  S
Cu654       N657   2.095       .  S
Cu655       N665   2.074       .  S
Cu656       N658   2.049       .  S
Cu656       N664   2.050       .  S
N657        N658   1.320       .  A
N657        C661   1.359       .  A
N658        C659   1.331       .  A
C659        C660   1.377       .  A
C659        H662   1.082       .  S
C660        C661   1.394       .  A
C661        H663   1.082       .  S
N664        N665   1.317       .  A
N664        C668   1.340       .  A
N665        C666   1.348       .  A
C666        C667   1.391       .  A
C666        H669   1.081       .  S
C667        C668   1.384       .  A
C667        C880   1.484       .  S
C668        H670   1.082       .  S
N671        N672   1.329       .  A
N671        C675   1.344       .  A
N671       Cu679   2.077       .  S
N672        C673   1.348       .  A
N672       Cu678   2.103       .  S
C673        C674   1.382       .  A
C673        H676   1.082       .  S
C674        C675   1.375       .  A
C675        H677   1.082       .  S
Cu678       N681   2.098       .  S
Cu679       N689   2.073       .  S
Cu680       N682   2.047       .  S
Cu680       N688   2.048       .  S
N681        N682   1.320       .  A
N681        C685   1.359       .  A
N682        C683   1.331       .  A
C683        C684   1.377       .  A
C683        H686   1.082       .  S
C684        C685   1.395       .  A
C685        H687   1.082       .  S
N688        N689   1.316       .  A
N688        C692   1.340       .  A
N689        C690   1.348       .  A
C690        C691   1.391       .  A
C690        H693   1.082       .  S
C691        C692   1.384       .  A
C691        C865   1.483       .  S
C692        H694   1.081       .  S
N695        N696   1.329       .  A
N695        C699   1.344       .  A
N695       Cu703   2.078       .  S
N696        C697   1.348       .  A
N696       Cu702   2.103       .  S
C697        C698   1.382       .  A
C697        H700   1.082       .  S
C698        C699   1.375       .  A
C699        H701   1.082       .  S
Cu702       N705   2.098       .  S
Cu703       N713   2.074       .  S
Cu704       N706   2.047       .  S
Cu704       N712   2.048       .  S
N705        N706   1.320       .  A
N705        C709   1.359       .  A
N706        C707   1.331       .  A
C707        C708   1.377       .  A
C707        H710   1.082       .  S
C708        C709   1.395       .  A
C709        H711   1.082       .  S
N712        N713   1.316       .  A
N712        C716   1.340       .  A
N713        C714   1.348       .  A
C714        C715   1.391       .  A
C714        H717   1.082       .  S
C715        C716   1.384       .  A
C715        C853   1.484       .  S
C716        H718   1.081       .  S
O719       Cu727   2.064       .  S
O719        C729   1.283       .  A
O720       Cu727   2.064       .  S
O720        C730   1.283       .  A
O721       Cu727   2.065       .  S
O721        C731   1.283       .  A
O722       Cu727   2.065       .  S
O722        C732   1.283       .  A
O723       Cu728   1.952       .  S
O723        C732   1.271       .  A
O724       Cu728   1.951       .  S
O724        C731   1.271       .  A
O725       Cu728   1.952       .  S
O725        C730   1.272       .  A
O726       Cu728   1.952       .  S
O726        C729   1.271       .  A
Cu727      Cu728   2.369       .  S
C729        C770   1.473       .  S
C730        C794   1.473       .  S
C731        C818   1.473       .  S
C732        C746   1.473       .  S
N733        N734   1.328       .  A
N733        C737   1.344       .  A
N733       Cu741   2.077       .  S
N734        C735   1.346       .  A
N734       Cu740   2.096       .  S
C735        C736   1.380       .  A
C735        H738   1.082       .  S
C736        C737   1.375       .  A
C737        H739   1.082       .  S
Cu740       N743   2.091       .  S
Cu741       N751   2.073       .  S
Cu742       N744   2.048       .  S
Cu742       N750   2.050       .  S
N743        N744   1.320       .  A
N743        C747   1.358       .  A
N744        C745   1.331       .  A
C745        C746   1.377       .  A
C745        H748   1.082       .  S
C746        C747   1.393       .  A
C747        H749   1.082       .  S
N750        N751   1.317       .  A
N750        C754   1.340       .  A
N751        C752   1.348       .  A
C752        C753   1.391       .  A
C752        H755   1.081       .  S
C753        C754   1.384       .  A
C753        C889   1.483       .  S
C754        H756   1.082       .  S
N757        N758   1.329       .  A
N757        C761   1.345       .  A
N757       Cu765   2.080       .  S
N758        C759   1.346       .  A
N758       Cu764   2.095       .  S
C759        C760   1.380       .  A
C759        H762   1.082       .  S
C760        C761   1.376       .  A
C761        H763   1.082       .  S
Cu764       N767   2.090       .  S
Cu765       N775   2.076       .  S
Cu766       N768   2.047       .  S
Cu766       N774   2.048       .  S
N767        N768   1.320       .  A
N767        C771   1.358       .  A
N768        C769   1.331       .  A
C769        C770   1.377       .  A
C769        H772   1.082       .  S
C770        C771   1.393       .  A
C771        H773   1.082       .  S
N774        N775   1.317       .  A
N774        C778   1.340       .  A
N775        C776   1.349       .  A
C776        C777   1.391       .  A
C776        H779   1.082       .  S
C777        C778   1.384       .  A
C777        C877   1.483       .  S
C778        H780   1.081       .  S
N781        N782   1.329       .  A
N781        C785   1.344       .  A
N781       Cu789   2.077       .  S
N782        C783   1.346       .  A
N782       Cu788   2.096       .  S
C783        C784   1.380       .  A
C783        H786   1.082       .  S
C784        C785   1.375       .  A
C785        H787   1.082       .  S
Cu788       N791   2.091       .  S
Cu789       N799   2.073       .  S
Cu790       N792   2.047       .  S
Cu790       N798   2.048       .  S
N791        N792   1.320       .  A
N791        C795   1.358       .  A
N792        C793   1.331       .  A
C793        C794   1.377       .  A
C793        H796   1.082       .  S
C794        C795   1.393       .  A
C795        H797   1.082       .  S
N798        N799   1.316       .  A
N798        C802   1.339       .  A
N799        C800   1.348       .  A
C800        C801   1.391       .  A
C800        H803   1.081       .  S
C801        C802   1.384       .  A
C801        C868   1.483       .  S
C802        H804   1.082       .  S
N805        N806   1.329       .  A
N805        C809   1.345       .  A
N805       Cu813   2.080       .  S
N806        C807   1.346       .  A
N806       Cu812   2.095       .  S
C807        C808   1.380       .  A
C807        H810   1.082       .  S
C808        C809   1.376       .  A
C809        H811   1.082       .  S
Cu812       N815   2.090       .  S
Cu813       N823   2.076       .  S
Cu814       N816   2.047       .  S
Cu814       N822   2.048       .  S
N815        N816   1.320       .  A
N815        C819   1.358       .  A
N816        C817   1.331       .  A
C817        C818   1.377       .  A
C817        H820   1.082       .  S
C818        C819   1.393       .  A
C819        H821   1.082       .  S
N822        N823   1.317       .  A
N822        C826   1.339       .  A
N823        C824   1.349       .  A
C824        C825   1.392       .  A
C824        H827   1.081       .  S
C825        C826   1.384       .  A
C825        C856   1.484       .  S
C826        H828   1.082       .  S
N829        N830   1.323       .  A
N829        C833   1.344       .  A
N829       Cu837   2.069       .  S
N830        C831   1.346       .  A
N830       Cu836   2.073       .  S
C831        C832   1.381       .  A
C831        H834   1.082       .  S
C832        C833   1.379       .  A
C833        H835   1.082       .  S
Cu836       N839   2.073       .  S
Cu837       N847   2.069       .  S
Cu838       N840   2.071       .  S
Cu838       N846   2.070       .  S
N839        N840   1.323       .  A
N839        C843   1.345       .  A
N840        C841   1.345       .  A
C841        C842   1.379       .  A
C841        H844   1.082       .  S
C842        C843   1.380       .  A
C843        H845   1.082       .  S
N846        N847   1.322       .  A
N846        C850   1.345       .  A
N847        C848   1.344       .  A
C848        C849   1.380       .  A
C848        H851   1.082       .  S
C849        C850   1.380       .  A
C850        H852   1.082       .  S
C853        C854   1.405       .  A
C853        C858   1.410       .  A
C854        C855   1.405   1_455  A
C854        H859   1.083       .  S
C855        C856   1.410       .  A
C855        O860   1.371       .  S
C856        C857   1.404       .  A
C857        C858   1.397   1_655  A
C857        H861   1.083       .  S
C858        O862   1.372       .  S
O860        H864   0.992       .  S
O862        H863   0.992       .  S
C865        C866   1.405       .  A
C865        C870   1.410       .  A
C866        C867   1.405   1_455  A
C866        H871   1.083       .  S
C867        C868   1.410       .  A
C867        O872   1.371       .  S
C868        C869   1.404       .  A
C869        C870   1.397   1_655  A
C869        H873   1.083       .  S
C870        O874   1.372       .  S
O872        H876   0.992       .  S
O874        H875   0.992       .  S
C877        C878   1.405       .  A
C877        C882   1.411       .  A
C878        C879   1.404   1_655  A
C878        H883   1.083       .  S
C879        C880   1.411       .  A
C879        O884   1.371       .  S
C880        C881   1.404       .  A
C881        C882   1.396   1_455  A
C881        H885   1.083       .  S
C882        O886   1.371       .  S
O884        H888   0.992       .  S
O886        H887   0.992       .  S
C889        C890   1.404       .  A
C889        C894   1.411       .  A
C890        C891   1.395   1_655  A
C890        H895   1.083       .  S
C891        C892   1.410       .  A
C891        O896   1.371       .  S
C892        C893   1.405       .  A
C893        C894   1.404   1_455  A
C893        H897   1.083       .  S
C894        O898   1.371       .  S
O896        H900   0.992       .  S
O898        H899   0.992       .  S
C901        C902   1.405       .  A
C901        C906   1.411       .  A
C902        C903   1.404   1_565  A
C902        H907   1.083       .  S
C903        C904   1.411       .  A
C903        O908   1.371       .  S
C904        C905   1.404       .  A
C905        C906   1.395   1_545  A
C905        H909   1.083       .  S
C906        O910   1.371       .  S
O908        H912   0.992       .  S
O910        H911   0.992       .  S
C913        C914   1.405       .  A
C913        C918   1.410       .  A
C914        C915   1.405   1_545  A
C914        H919   1.083       .  S
C915        C916   1.410       .  A
C915        O920   1.371       .  S
C916        C917   1.404       .  A
C917        C918   1.397   1_565  A
C917        H921   1.083       .  S
C918        O922   1.371       .  S
O920        H924   0.992       .  S
O922        H923   0.992       .  S
C925        C926   1.405       .  A
C925        C930   1.410       .  A
C926        C927   1.404   1_565  A
C926        H931   1.083       .  S
C927        C928   1.410       .  A
C927        O932   1.371       .  S
C928        C929   1.403       .  A
C929        C930   1.397   1_545  A
C929        H933   1.083       .  S
C930        O934   1.372       .  S
O932        H936   0.992       .  S
O934        H935   0.992       .  S
C937        C938   1.405       .  A
C937        C942   1.410       .  A
C938        C939   1.404   1_545  A
C938        H943   1.083       .  S
C939        C940   1.410       .  A
C939        O944   1.371       .  S
C940        C941   1.404       .  A
C941        C942   1.397   1_565  A
C941        H945   1.083       .  S
C942        O946   1.372       .  S
O944        H948   0.992       .  S
O946        H947   0.992       .  S
C949        C950   1.404       .  A
C949        C954   1.411       .  A
C950        C951   1.396   1_554  A
C950        H955   1.083       .  S
C951        C952   1.411       .  A
C951        O956   1.371       .  S
C952        C953   1.405       .  A
C953        C954   1.404   1_556  A
C953        H957   1.083       .  S
C954        O958   1.371       .  S
O956        H960   0.992       .  S
O958        H959   0.992       .  S
C961        C962   1.405       .  A
C961        C966   1.409       .  A
C962        C963   1.403   1_556  A
C962        H967   1.083       .  S
C963        C964   1.410       .  A
C963        O968   1.371       .  S
C964        C965   1.404       .  A
C965        C966   1.397   1_554  A
C965        H969   1.083       .  S
C966        O970   1.372       .  S
O968        H972   0.992       .  S
O970        H971   0.992       .  S
C973        C974   1.403       .  A
C973        C978   1.410       .  A
C974        C975   1.397   1_554  A
C974        H979   1.083       .  S
C975        C976   1.410       .  A
C975        O980   1.372       .  S
C976        C977   1.405       .  A
C977        C978   1.404   1_556  A
C977        H981   1.083       .  S
C978        O982   1.371       .  S
O980        H984   0.992       .  S
O982        H983   0.992       .  S
C985        C986   1.403       .  A
C985        C990   1.410       .  A
C986        C987   1.396   1_554  A
C986        H991   1.083       .  S
C987        C988   1.410       .  A
C987        O992   1.371       .  S
C988        C989   1.405       .  A
C989        C990   1.404   1_556  A
C989        H993   1.083       .  S
C990        O994   1.371       .  S
O992        H996   0.992       .  S
O994        H995   0.992       .  S
