geometry optimzed in LAMMPS
_audit_creation_date              2020-12-01 
_audit_creation_method            'lammps2cif' 
_symmetry_space_group_name_H-M    'P1' 
_symmetry_Int_Tables_number       1 
_symmetry_cell_setting            triclinic 
loop_ 
_symmetry_equiv_pos_as_xyz 
  x,y,z 
_cell_length_a                    80.50182621 
_cell_length_b                    41.84768283393481 
_cell_length_c                    35.30311912864049 
_cell_angle_alpha                 90.39479566441388 
_cell_angle_beta                  90.10979831112262 
_cell_angle_gamma                 89.78744874174379 
loop_ 
_atom_site_label 
_atom_site_type_symbol 
_atom_site_fract_x 
_atom_site_fract_y 
_atom_site_fract_z 
_atom_site_charge 
O1          O  0.60075627  0.47716665  0.04673530    -0.72600
O2          O  0.59950215  0.54736181  0.96797800    -0.73600
O3          O  0.57601424  0.51191470  0.00861670    -0.62200
O4          O  0.62516000  0.51312852  0.00739431    -0.70600
O5          O  0.62564345  0.47468202  0.96372955    -0.70100
O6          O  0.57572451  0.47412358  0.96400316    -0.61400
O7          O  0.60036983  0.50904133  0.92427532    -0.73900
O8          O  0.60011812  0.43954722  0.00211840    -0.72700
Cu9        Cu  0.60045065  0.51369859  0.00921984     1.04600
Cu10       Cu  0.60056055  0.47316107  0.96175925     1.04300
C11         C  0.59978652  0.44763701  0.03698312     0.93600
C12         C  0.59949197  0.53869395  0.93319262     0.92800
C13         C  0.56815984  0.49242671  0.98745265     0.84900
C14         C  0.63323649  0.49398616  0.98601342     0.91200
O15         O  0.41402722  0.48747340  0.03560036    -0.72600
O16         O  0.41898001  0.55938431  0.96199607    -0.73600
O17         O  0.39123723  0.53078572  0.00106745    -0.62200
O18         O  0.44056092  0.51438664  0.99656573    -0.70600
O19         O  0.43683240  0.48381651  0.94550136    -0.70100
O20         O  0.38808379  0.49289348  0.95735291    -0.61400
O21         O  0.41294470  0.52564849  0.91522546    -0.73900
O22         O  0.41315400  0.45200856  0.98857668    -0.72700
Cu23       Cu  0.41623643  0.52440972  0.00041454     1.04600
Cu24       Cu  0.41247858  0.48756048  0.94989254     1.04300
C25         C  0.41411814  0.45850842  0.02395032     0.93600
C26         C  0.41697027  0.55367066  0.92675308     0.92800
C27         C  0.38184821  0.51293840  0.98071984     0.84900
C28         C  0.44627821  0.49597198  0.97058263     0.91200
C29         C  0.41834134  0.60339762  0.83649691     0.86900
C30         C  0.41637904  0.63550348  0.85722470    -0.53400
C31         C  0.42428415  0.63695770  0.89155369     0.09800
C32         C  0.43319013  0.60549641  0.90213956     0.20700
C33         C  0.43722622  0.59796853  0.83427152    -0.54100
C34         C  0.44514667  0.59897645  0.86876022     0.09900
C35         C  0.41205892  0.57840806  0.86432774    -0.53600
C36         C  0.41979809  0.57908479  0.89861456     0.10500
H37         H  0.41022269  0.65593287  0.84452222     0.15000
H38         H  0.43951801  0.60633035  0.93012212     0.00700
H39         H  0.44355499  0.59452311  0.80747656     0.15300
H40         H  0.40263046  0.56088808  0.85701612     0.15100
C41         C  0.41683252  0.41134832  0.11578653     0.86900
C42         C  0.41279290  0.37898630  0.09752628    -0.53400
C43         C  0.41914391  0.37506358  0.06190111     0.09800
C44         C  0.42858621  0.40459305  0.04729838     0.20700
C45         C  0.43580404  0.41398398  0.11335229    -0.54100
C46         C  0.44208502  0.41074956  0.07750893     0.09900
C47         C  0.41031474  0.43636018  0.08806592    -0.53600
C48         C  0.41631797  0.43295756  0.05212636     0.10500
H49         H  0.40612600  0.36026081  0.11219841     0.15000
H50         H  0.43360840  0.40196174  0.01815983     0.00700
H51         H  0.44355088  0.41733859  0.13824186     0.15300
H52         H  0.40228084  0.45603813  0.09660528     0.15100
N53         N  0.33787069  0.51166512  0.55240779    -0.26900
N54         N  0.35078605  0.50205397  0.53212765    -0.34800
C55         C  0.36475587  0.50710603  0.55221835     0.01400
C56         C  0.36050097  0.52081042  0.58658691     0.07400
C57         C  0.34332739  0.52332375  0.58581502    -0.05700
H58         H  0.37713777  0.50122897  0.54247750     0.08100
H59         H  0.33532492  0.53220718  0.60812162     0.09300
Cu60       Cu  0.34918259  0.48300339  0.47768327     0.44200
Cu61       Cu  0.31331552  0.50690862  0.53485535     0.42000
Cu62       Cu  0.30788824  0.47017557  0.44252924     0.43900
N63         N  0.34419803  0.46795035  0.42258091    -0.34300
N64         N  0.32893676  0.46361855  0.40975035    -0.28600
C65         C  0.32959062  0.45544867  0.37290062    -0.04700
C66         C  0.34604486  0.45442477  0.36188691     0.07600
C67         C  0.35501432  0.46250711  0.39416391     0.01300
H68         H  0.31883717  0.45088867  0.35527340     0.09000
H69         H  0.36833783  0.46489992  0.39678614     0.08100
N70         N  0.28847019  0.48054248  0.47900660    -0.35800
N71         N  0.29027752  0.49496174  0.51220137    -0.27900
C72         C  0.27523405  0.49835598  0.52841093    -0.03200
C73         C  0.26347473  0.48518386  0.50424948     0.05400
C74         C  0.27231807  0.47405498  0.47338780     0.03500
H75         H  0.27312525  0.50869487  0.55615527     0.08600
H76         H  0.26737454  0.46197634  0.44863016     0.07500
C77         C  0.41359904  0.90754628  0.83646897     0.86900
C78         C  0.40810826  0.93590453  0.86109758    -0.53400
C79         C  0.41434220  0.93547862  0.89697726     0.09800
C80         C  0.42541941  0.90603016  0.90527110     0.20700
C81         C  0.43269839  0.90774427  0.83821031    -0.54100
C82         C  0.43891483  0.90728403  0.87440614     0.09900
C83         C  0.40844138  0.87799175  0.85862604    -0.53600
C84         C  0.41474191  0.87673101  0.89437325     0.10500
H85         H  0.40039340  0.95528229  0.85056980     0.15000
H86         H  0.43048791  0.90536031  0.93454532     0.00700
H87         H  0.44048593  0.90957356  0.81324745     0.15300
H88         H  0.40090909  0.85894224  0.84660352     0.15100
C89         C  0.41682284  0.11371152  0.10178627     0.86900
C90         C  0.40893018  0.08983350  0.07440940    -0.53400
C91         C  0.41465810  0.09162197  0.03825269     0.09800
C92         C  0.42784788  0.11815001  0.03257499     0.20700
C93         C  0.43565563  0.10811837  0.09830654    -0.54100
C94         C  0.44154698  0.11026068  0.06190837     0.09900
C95         C  0.41371666  0.14630861  0.08392868    -0.53600
C96         C  0.41958884  0.14902532  0.04795501     0.10500
H97         H  0.40023460  0.07161169  0.08346640     0.15000
H98         H  0.43249660  0.12000513  0.00307197     0.00700
H99         H  0.44351795  0.10354860  0.12268668     0.15300
H100        H  0.40765453  0.16595620  0.09878713     0.15100
N101        N  0.34084520  0.98933496  0.54025699    -0.26900
N102        N  0.35460705  0.99268546  0.52042367    -0.34800
C103        C  0.36781714  0.98683632  0.54247627     0.01400
C104        C  0.36221317  0.97930273  0.57808854     0.07400
C105        C  0.34499296  0.98108852  0.57589358    -0.05700
H106        H  0.38059960  0.98819096  0.53323289     0.08100
H107        H  0.33615573  0.97707087  0.59837862     0.09300
Cu108      Cu  0.35518744  0.00603392  0.46486019     0.44200
Cu109      Cu  0.31748218  0.99683003  0.51631524     0.42000
Cu110      Cu  0.31765135  0.02244470  0.41543468     0.43900
N111        N  0.35478266  0.02206591  0.41030819    -0.34300
N112        N  0.34106455  0.02840619  0.39119463    -0.28600
C113        C  0.34532154  0.03832856  0.35626721    -0.04700
C114        C  0.36256695  0.03810891  0.35383840     0.07600
C115        C  0.36805409  0.02773004  0.38858173     0.01300
H116        H  0.33654125  0.04496693  0.33445175     0.09000
H117        H  0.38081167  0.02430810  0.39744357     0.08100
N118        N  0.29638643  0.01374511  0.44757254    -0.35800
N119        N  0.29631163  0.00479744  0.48350661    -0.27900
C120        C  0.28047199  0.00086256  0.49473599    -0.03200
C121        C  0.27006325  0.00759057  0.46446560     0.05400
C122        C  0.28059531  0.01564396  0.43516606     0.03500
H123        H  0.27690605  0.99316235  0.52273409     0.08600
H124        H  0.27703073  0.02209907  0.40665485     0.07500
O125        O  0.57581553  0.97203795  0.01343783    -0.72600
O126        O  0.62510407  0.97549935  0.00720163    -0.73600
O127        O  0.60034348  0.00821012  0.05058496    -0.62200
O128        O  0.59935297  0.93971113  0.96929654    -0.70600
O129        O  0.59867909  0.97827294  0.92646114    -0.70100
O130        O  0.59765792  0.04633452  0.00758006    -0.61400
O131        O  0.62351486  0.01457126  0.96512226    -0.73900
O132        O  0.57401419  0.00979367  0.96957016    -0.72700
Cu133      Cu  0.60037313  0.97254768  0.01164026     1.04600
Cu134      Cu  0.59854306  0.01350105  0.96554141     1.04300
C135        C  0.56720398  0.99071917  0.99291435     0.93600
C136        C  0.63214957  0.99568427  0.98558859     0.92800
C137        C  0.59812316  0.03766409  0.04214614     0.84900
C138        C  0.59817040  0.94859350  0.93483521     0.91200
O139        O  0.38679189  0.99476085  0.99152349    -0.72600
O140        O  0.43594990  0.00224560  0.99235198    -0.73600
O141        O  0.41030569  0.03683865  0.02530661    -0.62200
O142        O  0.41336202  0.95946187  0.95844880    -0.70600
O143        O  0.41025222  0.99104277  0.90864690    -0.70100
O144        O  0.41118431  0.06933206  0.97589973    -0.61400
O145        O  0.43491944  0.03134997  0.93994456    -0.73900
O146        O  0.38538156  0.02917599  0.94404732    -0.72700
Cu147      Cu  0.41152707  0.99723199  0.99364390     1.04600
Cu148      Cu  0.41025427  0.03130649  0.94026171     1.04300
C149        C  0.37826415  0.01084390  0.96774395     0.93600
C150        C  0.44313958  0.01833235  0.96659860     0.92800
C151        C  0.41162870  0.06492663  0.01164747     0.84900
C152        C  0.41241879  0.96319635  0.92269389     0.91200
C153        C  0.59300792  0.90817196  0.83830331     0.86900
C154        C  0.59734538  0.87431746  0.85184620    -0.53400
C155        C  0.59206654  0.86780856  0.88786778     0.09800
C156        C  0.58317103  0.89635679  0.90708441     0.20700
C157        C  0.57413769  0.91102424  0.84368723    -0.54100
C158        C  0.56889871  0.90466289  0.87964114     0.09900
C159        C  0.60036882  0.93085707  0.86796400    -0.53600
C160        C  0.59527965  0.92500105  0.90408689     0.10500
H161        H  0.60295668  0.85657737  0.83326507     0.15000
H162        H  0.57884328  0.89144187  0.93632952     0.00700
H163        H  0.56560523  0.91611082  0.82061199     0.15300
H164        H  0.60820006  0.95098449  0.86067319     0.15100
C165        C  0.59504598  0.07957203  0.13838596     0.86900
C166        C  0.59848347  0.11310317  0.12314191    -0.53400
C167        C  0.59192451  0.11871182  0.08791318     0.09800
C168        C  0.58267129  0.08946285  0.07101185     0.20700
C169        C  0.57610699  0.07606012  0.13620359    -0.54100
C170        C  0.56943343  0.08118708  0.10115894     0.09900
C171        C  0.60166233  0.05643337  0.10830440    -0.53600
C172        C  0.59531028  0.06127548  0.07296821     0.10500
H173        H  0.60470193  0.13131545  0.13995131     0.15000
H174        H  0.57754035  0.09351214  0.04225786     0.00700
H175        H  0.56855087  0.06989568  0.16053740     0.15300
H176        H  0.61011872  0.03692332  0.11481204     0.15100
N177        N  0.68886701  0.02386683  0.42181668    -0.26900
N178        N  0.67403291  0.01786158  0.43621023    -0.34800
C179        C  0.66236649  0.02500034  0.41010894     0.01400
C180        C  0.67029312  0.03590917  0.37780957     0.07400
C181        C  0.68701442  0.03492855  0.38642550    -0.05700
H182        H  0.64917192  0.02176270  0.41419266     0.08100
H183        H  0.69718551  0.04099891  0.36784324     0.09300
Cu184      Cu  0.67027142  0.99831198  0.48977506     0.44200
Cu185      Cu  0.71145086  0.01463681  0.44819033     0.42000
Cu186      Cu  0.70882138  0.97211864  0.53389720     0.43900
N187        N  0.67146278  0.97677434  0.54287894    -0.34300
N188        N  0.68564701  0.96734420  0.55820788    -0.28600
C189        C  0.68267605  0.95494247  0.59242984    -0.04700
C190        C  0.66584596  0.95642608  0.59927591     0.07600
C191        C  0.65901033  0.97041076  0.56723093     0.01300
H192        H  0.69216475  0.94575630  0.61121878     0.09000
H193        H  0.64606316  0.97592135  0.56210694     0.08100
N194        N  0.73126559  0.98171153  0.50817560    -0.35800
N195        N  0.73238900  0.99850825  0.47678286    -0.27900
C196        C  0.74853339  0.00172655  0.46767413    -0.03200
C197        C  0.75797457  0.98599959  0.49475888     0.05400
C198        C  0.74659312  0.97351792  0.51983102     0.03500
H199        H  0.75298387  0.01424016  0.44301493     0.08600
H200        H  0.74926768  0.95982520  0.54502246     0.07500
C201        C  0.60267268  0.57987289  0.83725322     0.86900
C202        C  0.60616134  0.55565602  0.86844213    -0.53400
C203        C  0.59868591  0.56234295  0.90213693     0.09800
C204        C  0.58813804  0.59349658  0.90146170     0.20700
C205        C  0.58363803  0.58131653  0.83439838    -0.54100
C206        C  0.57583859  0.58822937  0.86816949     0.09900
C207        C  0.60783262  0.61208694  0.85410644    -0.53600
C208        C  0.60010457  0.61971458  0.88725786     0.10500
H209        H  0.61370180  0.53436188  0.86399806     0.15000
H210        H  0.58200756  0.59930365  0.92882751     0.00700
H211        H  0.57719239  0.57733242  0.80781620     0.15300
H212        H  0.61653398  0.62803230  0.84034797     0.15100
C213        C  0.59673337  0.40390211  0.13118190     0.86900
C214        C  0.60337097  0.42767543  0.10228239    -0.53400
C215        C  0.59748236  0.42306825  0.06649119     0.09800
C216        C  0.58535995  0.39436900  0.06288120     0.20700
C217        C  0.57774739  0.40678805  0.12808250    -0.54100
C218        C  0.57167958  0.40209882  0.09211694     0.09900
C219        C  0.60074406  0.37069802  0.11519138    -0.53600
C220        C  0.59463478  0.36513924  0.07956489     0.10500
H221        H  0.61135497  0.44758159  0.10997577     0.15000
H222        H  0.58047238  0.39041601  0.03377902     0.00700
H223        H  0.56994083  0.41172042  0.15245124     0.15300
H224        H  0.60674391  0.35241854  0.13213689     0.15100
N225        N  0.68407104  0.53367324  0.54426580    -0.26900
N226        N  0.67091522  0.52703403  0.52318805    -0.34800
C227        C  0.65710033  0.53524818  0.54228409     0.01400
C228        C  0.66169542  0.54739265  0.57720566     0.07400
C229        C  0.67892829  0.54611176  0.57752497    -0.05700
H230        H  0.64457852  0.53176039  0.53189740     0.08100
H231        H  0.68716654  0.55324305  0.60026360     0.09300
Cu232      Cu  0.67200985  0.50496010  0.47059815     0.44200
Cu233      Cu  0.70838883  0.52458361  0.52721883     0.42000
Cu234      Cu  0.71280565  0.48454735  0.43623552     0.43900
N235        N  0.67611429  0.48070522  0.42016883    -0.34300
N236        N  0.69108145  0.47322416  0.40752558    -0.28600
C237        C  0.68959522  0.45838825  0.37379150    -0.04700
C238        C  0.67290922  0.45639539  0.36478153     0.07600
C239        C  0.66469427  0.47079542  0.39488564     0.01300
H240        H  0.69993435  0.45022527  0.35668910     0.09000
H241        H  0.65146813  0.47460726  0.39793963     0.08100
N242        N  0.73271301  0.49742084  0.47041966    -0.35800
N243        N  0.73118988  0.51215167  0.50350489    -0.27900
C244        C  0.74638983  0.51589492  0.51888528    -0.03200
C245        C  0.75799990  0.50271721  0.49430689     0.05400
C246        C  0.74887214  0.49128486  0.46396358     0.03500
H247        H  0.74869867  0.52645498  0.54643449     0.08600
H248        H  0.75360584  0.47879606  0.43928611     0.07500
O249        O  0.09980672  0.55087114  0.55065243    -0.72600
O250        O  0.10494979  0.47960109  0.47499319    -0.73600
O251        O  0.07848248  0.50803261  0.51292015    -0.62200
O252        O  0.12753306  0.52159877  0.51282503    -0.70600
O253        O  0.13023422  0.48335947  0.55566976    -0.70100
O254        O  0.08090743  0.47574324  0.56238917    -0.61400
O255        O  0.10515713  0.44336553  0.52059775    -0.73900
O256        O  0.10452326  0.51632026  0.59686695    -0.72700
Cu257      Cu  0.10273502  0.51630174  0.51128365     1.04600
Cu258      Cu  0.10547185  0.47852263  0.56063380     1.04300
C259        C  0.10096910  0.54468606  0.58588720     0.93600
C260        C  0.10439509  0.45043902  0.48545371     0.92800
C261        C  0.07204600  0.48952792  0.53742811     0.84900
C262        C  0.13670610  0.50401222  0.53369576     0.91200
O263        O  0.91592886  0.50652725  0.45583658    -0.72600
O264        O  0.91852444  0.57653571  0.53565939    -0.73600
O265        O  0.94132976  0.54044052  0.49257144    -0.62200
O266        O  0.89194574  0.54306442  0.49882408    -0.70600
O267        O  0.89212782  0.50337848  0.54021807    -0.70100
O268        O  0.94182116  0.50305384  0.53704371    -0.61400
O269        O  0.91771281  0.53800514  0.57844204    -0.73900
O270        O  0.91757964  0.46849231  0.49919133    -0.72700
Cu271      Cu  0.91678633  0.54292085  0.49412982     1.04600
Cu272      Cu  0.91721630  0.50203119  0.54042028     1.04300
C273        C  0.91755168  0.47695363  0.46455639     0.93600
C274        C  0.91874357  0.56770454  0.57019153     0.92800
C275        C  0.94926545  0.52080449  0.51326503     0.84900
C276        C  0.88418066  0.52381117  0.52032086     0.91200
C277        C  0.91636371  0.60755567  0.66744796     0.86900
C278        C  0.91309093  0.58349128  0.63580000    -0.53400
C279        C  0.91980355  0.59116755  0.60178810     0.09800
C280        C  0.92947608  0.62335085  0.60261722     0.20700
C281        C  0.93536003  0.61066507  0.66891780    -0.54100
C282        C  0.94235315  0.61880417  0.63487752     0.09900
C283        C  0.90998882  0.63937983  0.65207470    -0.53600
C284        C  0.91697810  0.64829007  0.61865141     0.10500
H285        H  0.90614685  0.56157923  0.64010346     0.15000
H286        H  0.93506695  0.62995932  0.57504035     0.00700
H287        H  0.94257407  0.60676893  0.69450544     0.15300
H288        H  0.90100781  0.65419659  0.66708262     0.15100
C289        C  0.91912697  0.43376416  0.36893587     0.86900
C290        C  0.91328904  0.45763704  0.39896317    -0.53400
C291        C  0.92002551  0.45291854  0.43392863     0.09800
C292        C  0.93234032  0.42399321  0.43551021     0.20700
C293        C  0.93809033  0.43614048  0.36954478    -0.54100
C294        C  0.94525398  0.43096636  0.40406543     0.09900
C295        C  0.91543217  0.40069469  0.38497031    -0.53600
C296        C  0.92242269  0.39500168  0.41974843     0.10500
H297        H  0.90495983  0.47740630  0.39269258     0.15000
H298        H  0.93789345  0.41995647  0.46387025     0.00700
H299        H  0.94533430  0.44126755  0.34437595     0.15300
H300        H  0.90889051  0.38266337  0.36856299     0.15100
N301        N  0.83918594  0.49082250  0.07353062    -0.26900
N302        N  0.82473382  0.47837741  0.08309727    -0.34800
C303        C  0.82600637  0.46639457  0.11829725     0.01400
C304        C  0.84202586  0.47145329  0.13132451     0.07400
C305        C  0.85001750  0.48704477  0.10211980    -0.05700
H306        H  0.81601179  0.45483435  0.13331270     0.08100
H307        H  0.86271430  0.49532949  0.10145087     0.09300
Cu308      Cu  0.80409650  0.47843793  0.04750874     0.44200
Cu309      Cu  0.84394896  0.51271802  0.02246766     0.42000
Cu310      Cu  0.81068895  0.51537182  0.95550062     0.43900
N311        N  0.78585779  0.48289395  0.00600844    -0.34300
N312        N  0.78839169  0.49614350  0.97262045    -0.28600
C313        C  0.77406246  0.49658395  0.95308751    -0.04700
C314        C  0.76185141  0.48320776  0.97519239     0.07600
C315        C  0.76977128  0.47462528  0.00858559     0.01300
H316        H  0.77253168  0.50694061  0.92528083     0.09000
H317        H  0.76427430  0.46391942  0.03335346     0.08100
N318        N  0.83392985  0.53383671  0.94482624    -0.35800
N319        N  0.84624098  0.53289449  0.96954544    -0.27900
C320        C  0.85983257  0.54588292  0.95395399    -0.03200
C321        C  0.85587558  0.55542534  0.91764325     0.05400
C322        C  0.83929770  0.54746584  0.91279395     0.03500
H323        H  0.87180082  0.54767299  0.96777885     0.08600
H324        H  0.83169388  0.55068613  0.88783512     0.07500
C325        C  0.92201491  0.93282650  0.66718286     0.86900
C326        C  0.91842549  0.89948974  0.65082446    -0.53400
C327        C  0.92475808  0.89441732  0.61520400     0.09800
C328        C  0.93383625  0.92392115  0.59913000     0.20700
C329        C  0.94092750  0.93629692  0.66453220    -0.54100
C330        C  0.94727816  0.93172994  0.62911157     0.09900
C331        C  0.91518812  0.95648140  0.63812731    -0.53600
C332        C  0.92126252  0.95208538  0.60241531     0.10500
H333        H  0.91248825  0.88099998  0.66735103     0.15000
H334        H  0.93879480  0.92031548  0.57011231     0.00700
H335        H  0.94870072  0.94219298  0.68877818     0.15300
H336        H  0.90686535  0.97600950  0.64561722     0.15100
C337        C  0.92373450  0.10712940  0.37114289     0.86900
C338        C  0.91884885  0.14046332  0.38554770    -0.53400
C339        C  0.92436817  0.14746254  0.42140946     0.09800
C340        C  0.93408313  0.11946558  0.43980937     0.20700
C341        C  0.94269552  0.10587223  0.37554927    -0.54100
C342        C  0.94824296  0.11249395  0.41146493     0.09900
C343        C  0.91723356  0.08378468  0.40066936    -0.53600
C344        C  0.92258485  0.08979085  0.43668928     0.10500
H345        H  0.91269160  0.15773115  0.36746226     0.15000
H346        H  0.93858194  0.12463834  0.46896819     0.00700
H347        H  0.95096348  0.09997346  0.35223965     0.15300
H348        H  0.90965514  0.06321885  0.39329085     0.15100
N349        N  0.84391937  0.99916923  0.96580256    -0.26900
N350        N  0.82937296  0.99158001  0.95079374    -0.34800
C351        C  0.83159092  0.98150007  0.91501029     0.01400
C352        C  0.84829900  0.98255321  0.90674220     0.07400
C353        C  0.85584278  0.99388657  0.93961668    -0.05700
H354        H  0.82169078  0.97380298  0.89631889     0.08100
H355        H  0.86894156  0.99808690  0.94422429     0.09300
Cu356      Cu  0.80678153  0.99448727  0.97821860     0.44200
Cu357      Cu  0.84645629  0.01684931  0.02115274     0.42000
Cu358      Cu  0.80660531  0.03015570  0.06912015     0.43900
N359        N  0.78537650  0.99948566  0.00982535    -0.34300
N360        N  0.78527675  0.01311508  0.04363536    -0.28600
C361        C  0.76969924  0.01304938  0.05725440    -0.04700
C362        C  0.75949357  0.99876585  0.03061111     0.07600
C363        C  0.76986640  0.99036882  0.00083244     0.01300
H364        H  0.76605624  0.02285577  0.08444133     0.09000
H365        H  0.76650483  0.97862517  0.97454734     0.08100
N366        N  0.82949159  0.04060072  0.09255912    -0.35800
N367        N  0.84402751  0.03530902  0.07617136    -0.27900
C368        C  0.85617181  0.04329591  0.10085429    -0.03200
C369        C  0.84881330  0.05406405  0.13417319     0.05400
C370        C  0.83195994  0.05206110  0.12769599     0.03500
H371        H  0.86930938  0.04106594  0.09502563     0.08600
H372        H  0.82213011  0.05791088  0.14747063     0.07500
O373        O  0.08534422  0.97410609  0.47776066    -0.72600
O374        O  0.13481459  0.98053972  0.48602879    -0.73600
O375        O  0.10906406  0.94133279  0.51964058    -0.62200
O376        O  0.10948097  0.01370815  0.44461926    -0.70600
O377        O  0.10557801  0.04934237  0.49055713    -0.70100
O378        O  0.10823338  0.97750555  0.56588760    -0.61400
O379        O  0.13227931  0.01789836  0.53056077    -0.73900
O380        O  0.08297994  0.00804507  0.52614285    -0.72700
Cu381      Cu  0.10997753  0.97626545  0.48032233     1.04600
Cu382      Cu  0.10734855  0.01447540  0.52989794     1.04300
C383        C  0.07644378  0.98926162  0.50168988     0.93600
C384        C  0.14140093  0.00044727  0.50919395     0.92800
C385        C  0.10742781  0.94840013  0.55470931     0.84900
C386        C  0.10646060  0.04247500  0.45532067     0.91200
O387        O  0.89392818  0.99991766  0.49484445    -0.72600
O388        O  0.94351485  0.00397262  0.50117248    -0.73600
O389        O  0.91945805  0.96771356  0.53748886    -0.62200
O390        O  0.91915051  0.03634386  0.45802374    -0.70600
O391        O  0.91906743  0.07458201  0.50184988    -0.70100
O392        O  0.91597686  0.00536583  0.58135798    -0.61400
O393        O  0.94155606  0.04017625  0.54732023    -0.73900
O394        O  0.89225395  0.03995875  0.53623623    -0.72700
Cu395      Cu  0.91894750  0.00073543  0.49623357     1.04600
Cu396      Cu  0.91700050  0.04133118  0.54325286     1.04300
C397        C  0.88524646  0.01975719  0.51421415     0.93600
C398        C  0.95026208  0.02195995  0.52614912     0.92800
C399        C  0.91846835  0.97602580  0.57225429     0.84900
C400        C  0.91999620  0.06597191  0.46711023     0.91200
C401        C  0.09862125  0.59645629  0.67592512     0.86900
C402        C  0.10326525  0.62681313  0.65444488    -0.53400
C403        C  0.09657839  0.62883694  0.61910193     0.09800
C404        C  0.08610827  0.59937464  0.60779523     0.20700
C405        C  0.07950544  0.59574621  0.67512075    -0.54100
C406        C  0.07289106  0.59715989  0.63934640     0.09900
C407        C  0.10416636  0.56892330  0.64999303    -0.53600
C408        C  0.09773025  0.57021643  0.61428693     0.10500
H409        H  0.11055502  0.64601556  0.66691364     0.15000
H410        H  0.08073388  0.60066316  0.57884054     0.00700
H411        H  0.07194222  0.59383243  0.70043343     0.15300
H412        H  0.11244031  0.54992667  0.65921362     0.15100
C413        C  0.09955996  0.40814245  0.39040382     0.86900
C414        C  0.10279965  0.37418546  0.40456341    -0.53400
C415        C  0.09700290  0.36860957  0.44039300     0.09800
C416        C  0.08881091  0.39829157  0.45900464     0.20700
C417        C  0.08066477  0.41293949  0.39500065    -0.54100
C418        C  0.07489897  0.40784818  0.43105676     0.09900
C419        C  0.10728599  0.43030274  0.42005513    -0.53600
C420        C  0.10177187  0.42555438  0.45603498     0.10500
H421        H  0.10806455  0.35570142  0.38646915     0.15000
H422        H  0.08424624  0.39414764  0.48823604     0.00700
H423        H  0.07266433  0.41892490  0.37132960     0.15300
H424        H  0.11557947  0.44971578  0.41269019     0.15100
N425        N  0.17928087  0.52941906  0.96660645    -0.26900
N426        N  0.16687259  0.52011433  0.98831324    -0.34800
C427        C  0.15268443  0.52105136  0.96813858     0.01400
C428        C  0.15629499  0.53156000  0.93204354     0.07400
C429        C  0.17332350  0.53659136  0.93205690    -0.05700
H430        H  0.14060881  0.51450605  0.97895599     0.08100
H431        H  0.18092724  0.54451546  0.90874801     0.09300
Cu432      Cu  0.16993013  0.50587527  0.04407931     0.44200
Cu433      Cu  0.20381967  0.53078539  0.98465173     0.42000
Cu434      Cu  0.21224494  0.49646312  0.07737300     0.43900
N435        N  0.17600397  0.49003153  0.09794615    -0.34300
N436        N  0.19140455  0.48609173  0.11019122    -0.28600
C437        C  0.19092871  0.47499064  0.14592958    -0.04700
C438        C  0.17446340  0.47167297  0.15663109     0.07600
C439        C  0.16536608  0.48156532  0.12540497     0.01300
H440        H  0.20178087  0.46956348  0.16286704     0.09000
H441        H  0.15199968  0.48251554  0.12251776     0.08100
N442        N  0.23062338  0.51267983  0.04059470    -0.35800
N443        N  0.22745283  0.52631791  0.00764371    -0.27900
C444        C  0.24182830  0.53584299  0.99202739    -0.03200
C445        C  0.25471010  0.52752929  0.01597159     0.05400
C446        C  0.24715493  0.51283030  0.04651394     0.03500
H447        H  0.24283257  0.54782104  0.96505723     0.08600
H448        H  0.25314297  0.50362672  0.07164860     0.07500
C449        C  0.09648204  0.90689156  0.64675077     0.86900
C450        C  0.10670965  0.92763089  0.62003646    -0.53400
C451        C  0.10295369  0.92359604  0.58261176     0.09800
C452        C  0.08916790  0.89835909  0.57541935     0.20700
C453        C  0.07833854  0.91469055  0.63702530    -0.54100
C454        C  0.07434387  0.91023874  0.59959881     0.09900
C455        C  0.09893462  0.87246556  0.63298057    -0.53600
C456        C  0.09496025  0.86767385  0.59575788     0.02900
H457        H  0.11519697  0.94592863  0.63018999     0.15000
H458        H  0.08596833  0.89464392  0.54508769     0.00700
H459        H  0.06935362  0.92166931  0.65843842     0.15300
H460        H  0.10273103  0.85318549  0.65158510     0.15100
C461        C  0.10035515  0.08660589  0.36170542     0.86900
C462        C  0.10695051  0.06144221  0.38901670    -0.53400
C463        C  0.10316841  0.06717546  0.42614676     0.09800
C464        C  0.09300228  0.09854274  0.43245503     0.20700
C465        C  0.08166145  0.08830871  0.36950763    -0.54100
C466        C  0.07766227  0.09497622  0.40641777     0.09900
C467        C  0.10718319  0.11842315  0.37637347    -0.53600
C468        C  0.10325001  0.12514109  0.41314988     0.10500
H469        H  0.11353769  0.04017462  0.37944641     0.15000
H470        H  0.08981751  0.10367439  0.46248422     0.00700
H471        H  0.07238793  0.08484342  0.34749330     0.15300
H472        H  0.11397270  0.13493699  0.35857872     0.15100
N473        N  0.18426751  0.00955569  0.07562514    -0.26900
N474        N  0.16957410  0.00504778  0.05969365    -0.34800
C475        C  0.15778414  0.01686197  0.08309807     0.01400
C476        C  0.16561945  0.02934982  0.11499505     0.07400
C477        C  0.18231787  0.02437250  0.10906631    -0.05700
H478        H  0.14458119  0.01596172  0.07749648     0.08100
H479        H  0.19237132  0.03029503  0.12824006     0.09300
Cu480      Cu  0.16678713  0.98247792  0.00712370     0.44200
Cu481      Cu  0.20657952  0.99390822  0.05414304     0.42000
Cu482      Cu  0.20648459  0.95556799  0.96541720     0.43900
N483        N  0.16921939  0.96085214  0.95390194    -0.34300
N484        N  0.18362553  0.95158583  0.93943304    -0.28600
C485        C  0.18115945  0.93966626  0.90455238    -0.04700
C486        C  0.16445860  0.94136217  0.89635875     0.07600
C487        C  0.15715673  0.95489301  0.92827068     0.01300
H488        H  0.19091839  0.93073999  0.88622371     0.09000
H489        H  0.14416452  0.96051249  0.93242526     0.08100
N490        N  0.22796305  0.96214934  0.99626527    -0.35800
N491        N  0.22787160  0.97604697  0.02989977    -0.27900
C492        C  0.24348979  0.97794949  0.04303531    -0.03200
C493        C  0.25394469  0.96497969  0.01605779     0.05400
C494        C  0.24370209  0.95503760  0.98670706     0.03500
H495        H  0.24702587  0.98924912  0.06948060     0.08600
H496        H  0.24735241  0.94416182  0.96009993     0.07500
C497        C  0.13599811  0.05622523  0.19489947     0.19100
C498        C  0.12080627  0.04450979  0.20827324    -0.19000
C499        C  0.11525433  0.05239722  0.24471505    -0.11300
C500        C  0.12478952  0.07243382  0.26834785     0.21300
C501        C  0.13965333  0.08506751  0.25446008    -0.20700
C502        C  0.14511821  0.07743507  0.21799985    -0.11500
C503        C  0.12015450  0.07928096  0.30820910    -0.15700
C504        C  0.10439760  0.07968229  0.32068510    -0.29500
C505        C  0.14231010  0.04492970  0.15755071    -0.03800
C506        C  0.15863635  0.04335871  0.14992314    -0.40300
H507        H  0.11350967  0.02828455  0.19100538     0.12500
H508        H  0.10385870  0.04178053  0.25472888     0.12100
H509        H  0.14711920  0.10080619  0.27199425     0.11500
H510        H  0.15653892  0.08808743  0.20823164     0.11800
H511        H  0.13006848  0.08520166  0.32797395     0.14500
H512        H  0.09423949  0.07554467  0.30101381     0.13300
H513        H  0.13346330  0.03537930  0.13719043     0.11000
H514        H  0.16760782  0.05093385  0.17108473     0.13000
C515        C  0.13379300  0.92447121  0.81456815     0.19100
C516        C  0.11892652  0.93869876  0.80238842    -0.19000
C517        C  0.11271140  0.93255362  0.76601637    -0.11300
C518        C  0.12120893  0.91164120  0.74125876     0.21300
C519        C  0.13575401  0.89662563  0.75397524    -0.20700
C520        C  0.14190749  0.90266018  0.79027687    -0.11500
C521        C  0.11595927  0.90603082  0.70143909    -0.15700
C522        C  0.10062335  0.91200331  0.68808001    -0.29500
C523        C  0.14068868  0.93329358  0.85229425    -0.03800
C524        C  0.15701980  0.93151499  0.85997241    -0.40300
H525        H  0.11238053  0.95541089  0.82063157     0.12500
H526        H  0.10161543  0.94508367  0.75718162     0.12100
H527        H  0.14245850  0.88023396  0.73563088     0.11500
H528        H  0.15301919  0.89011784  0.79905507     0.11800
H529        H  0.12515593  0.89623776  0.68199849     0.14500
H530        H  0.09091704  0.92057323  0.70686751     0.13300
H531        H  0.13227143  0.94310222  0.87342344     0.11000
H532        H  0.16564473  0.92336806  0.83837164     0.13000
C533        C  0.10361912  0.27752317  0.45441895     0.19100
C534        C  0.11745092  0.25706184  0.45320805    -0.19000
C535        C  0.11551538  0.22388007  0.45418406    -0.11300
C536        C  0.09957433  0.21016138  0.45534068     0.21300
C537        C  0.08576303  0.23065342  0.45898566    -0.20700
C538        C  0.08772601  0.26401618  0.45846246    -0.11500
C539        C  0.09691342  0.17504765  0.44956727    -0.15700
C540        C  0.10758394  0.15689523  0.42927164    -0.29500
C541        C  0.10615469  0.31204020  0.44611983    -0.03800
C542        C  0.09569264  0.33578667  0.45639781    -0.40300
H543        H  0.12983312  0.26679400  0.45032167     0.12500
H544        H  0.12655934  0.20912741  0.45297344     0.12100
H545        H  0.07333775  0.22085050  0.46017387     0.11500
H546        H  0.07674693  0.27899719  0.45892757     0.11800
H547        H  0.08496624  0.16503000  0.45731955     0.14500
H548        H  0.11873610  0.16768614  0.41796072     0.13300
H549        H  0.11707223  0.31798889  0.42958793     0.11000
H550        H  0.08549878  0.33098116  0.47558646     0.13000
C551        C  0.14484121  0.44320109  0.23676706     0.19100
C552        C  0.12746319  0.44147808  0.23980980    -0.19000
C553        C  0.11987251  0.43128587  0.27322185    -0.11300
C554        C  0.12950928  0.42252845  0.30484412     0.21300
C555        C  0.14691194  0.42360036  0.30157631    -0.20700
C556        C  0.15451903  0.43378247  0.26807841    -0.11500
C557        C  0.12212907  0.41293944  0.34192678    -0.15700
C558        C  0.10580616  0.41454376  0.35063494    -0.29500
C559        C  0.15202105  0.45493091  0.20039098    -0.03800
C560        C  0.16831568  0.45975109  0.19358092    -0.40300
H561        H  0.11964005  0.44827719  0.21617620     0.12500
H562        H  0.10647533  0.43049397  0.27375769     0.12100
H563        H  0.15470779  0.41685228  0.32528119     0.11500
H564        H  0.16792388  0.43421799  0.26721763     0.11800
H565        H  0.13069225  0.40564019  0.36413092     0.14500
H566        H  0.09676757  0.42203470  0.32973799     0.13300
H567        H  0.14321041  0.46009039  0.17792459     0.11000
H568        H  0.17756079  0.45488303  0.21512149     0.13000
C569        C  0.08442617  0.77792228  0.58690043     0.19100
C570        C  0.07031741  0.76059212  0.59756800    -0.19000
C571        C  0.07002841  0.72728438  0.59450188    -0.11300
C572        C  0.08403589  0.71036589  0.58177514     0.21300
C573        C  0.09790848  0.72774381  0.56905938    -0.20700
C574        C  0.09805823  0.76130217  0.57140981    -0.11500
C575        C  0.08422963  0.67494156  0.58622152    -0.15700
C576        C  0.09787526  0.65923240  0.59795874    -0.29500
C577        C  0.08533296  0.81222011  0.59789037    -0.03800
C578        C  0.09380101  0.83494602  0.57923207    -0.40300
H579        H  0.05968888  0.77282103  0.60974931     0.12500
H580        H  0.05919016  0.71458304  0.60444237     0.12100
H581        H  0.10881733  0.71542272  0.55851664     0.11500
H582        H  0.10919252  0.77399751  0.56336039     0.11800
H583        H  0.07233241  0.66278780  0.58772747     0.14500
H584        H  0.10948614  0.67218373  0.60073988     0.13300
H585        H  0.07855510  0.81920521  0.62327314     0.11000
H586        H  0.09945656  0.82986683  0.55196515     0.13000
C587        C  0.13670353  0.55535362  0.83597435     0.19100
C588        C  0.14111370  0.57788252  0.80860735    -0.19000
C589        C  0.13100331  0.58328372  0.77712996    -0.11300
C590        C  0.11608464  0.56625015  0.77218092     0.21300
C591        C  0.11168285  0.54353651  0.79945316    -0.20700
C592        C  0.12183390  0.53814511  0.83110514    -0.11500
C593        C  0.10570294  0.56973099  0.73743208    -0.15700
C594        C  0.10646052  0.59548119  0.71486523    -0.29500
C595        C  0.14843223  0.54967387  0.86786864    -0.03800
C596        C  0.14420980  0.53599823  0.90083686    -0.40300
H597        H  0.15259696  0.59114564  0.81132077     0.12500
H598        H  0.13532789  0.60002993  0.75620641     0.12100
H599        H  0.10045586  0.52961607  0.79599272     0.11500
H600        H  0.11819873  0.51989411  0.85093894     0.11800
H601        H  0.09776850  0.54990725  0.72914013     0.14500
H602        H  0.11371452  0.61602604  0.72365922     0.13300
H603        H  0.16103539  0.55828797  0.86436352     0.11000
H604        H  0.13149955  0.52871548  0.90590625     0.13000
C605        C  0.03077475  0.99688202  0.52590777     0.19100
C606        C  0.02211985  0.02400180  0.53807770    -0.19000
C607        C  0.00500609  0.02571399  0.53384951    -0.11300
C608        C  0.99617700  0.99967789  0.51851421     0.21300
C609        C  0.00486859  0.97219209  0.50701920    -0.20700
C610        C  0.02209467  0.97076845  0.51058834    -0.11500
C611        C  0.97802629  0.00073823  0.51314502    -0.15700
C612        C  0.96822258  0.02163142  0.53148956    -0.29500
C613        C  0.04891550  0.99732606  0.52835553    -0.03800
C614        C  0.05847212  0.98479750  0.50106138    -0.40300
H615        H  0.02870442  0.04443229  0.54959641     0.12500
H616        H  0.99896695  0.04784413  0.54174249     0.12100
H617        H  0.99831853  0.95181361  0.49529580     0.11500
H618        H  0.02856888  0.94926147  0.50175750     0.11800
H619        H  0.97249596  0.98316129  0.49415430     0.14500
H620        H  0.97318954  0.03812865  0.55238047     0.13300
H621        H  0.05448696  0.01119870  0.55119989     0.11000
H622        H  0.05302688  0.97185772  0.47735095     0.13000
C623        C  0.03110817  0.11917104  0.40270174     0.19100
C624        C  0.02274377  0.14139817  0.37996234    -0.19000
C625        C  0.00546523  0.14338295  0.38006606    -0.11300
C626        C  0.99597909  0.12328893  0.40303019     0.21300
C627        C  0.00426922  0.10199196  0.42747499    -0.20700
C628        C  0.02174519  0.09991157  0.42728684    -0.11500
C629        C  0.97769099  0.12300234  0.39676186    -0.15700
C630        C  0.96621517  0.11320849  0.42183179    -0.29500
C631        C  0.04919564  0.11460024  0.39576830    -0.03800
C632        C  0.06016872  0.10014013  0.41899689    -0.40300
H633        H  0.02959613  0.15652232  0.36075289     0.12500
H634        H  0.99944342  0.15997600  0.36097913     0.12100
H635        H  0.99731248  0.08575862  0.44508723     0.11500
H636        H  0.02776653  0.08213472  0.44474416     0.11800
H637        H  0.97340694  0.13209806  0.36967540     0.14500
H638        H  0.96983616  0.10683054  0.45042194     0.13300
H639        H  0.05381791  0.12402157  0.36918558     0.11000
H640        H  0.05658474  0.09299956  0.44729903     0.13000
C641        C  0.89489370  0.09187609  0.28407702     0.19100
C642        C  0.87897743  0.10288992  0.27441676    -0.19000
C643        C  0.87181049  0.09486232  0.23955590    -0.11300
C644        C  0.88031120  0.07497684  0.21364821     0.21300
C645        C  0.89634883  0.06432720  0.22306618    -0.20700
C646        C  0.90356251  0.07250999  0.25793992    -0.11500
C647        C  0.87290547  0.06502341  0.17666911    -0.15700
C648        C  0.85642577  0.06471272  0.17022518    -0.29500
C649        C  0.90158303  0.09996403  0.32226505    -0.03800
C650        C  0.91784009  0.09966083  0.33129014    -0.40300
H651        H  0.87205301  0.11793019  0.29393109     0.12500
H652        H  0.85969302  0.10460959  0.23307368     0.12100
H653        H  0.90320210  0.04907789  0.20366217     0.11500
H654        H  0.91570225  0.06290607  0.26459014     0.11800
H655        H  0.88125429  0.05642167  0.15469537     0.14500
H656        H  0.84787036  0.07159081  0.19254125     0.13300
H657        H  0.89272638  0.10707023  0.34398924     0.11000
H658        H  0.92705900  0.09404343  0.30986203     0.13000
C659        C  0.99220985  0.92951727  0.58941530     0.19100
C660        C  0.00188821  0.90546842  0.57226857    -0.19000
C661        C  0.01931472  0.90636566  0.57445569    -0.11300
C662        C  0.02736808  0.93171054  0.59342348     0.21300
C663        C  0.01764076  0.95666633  0.60839018    -0.20700
C664        C  0.00032331  0.95575506  0.60620437    -0.11500
C665        C  0.04551607  0.93168796  0.60198756    -0.15700
C666        C  0.05703414  0.91318987  0.58468884    -0.29500
C667        C  0.97378378  0.92613583  0.59154182    -0.03800
C668        C  0.96541742  0.93570213  0.62265417    -0.40300
H669        H  0.99594497  0.88515972  0.55881072     0.12500
H670        H  0.02631605  0.88651092  0.56283293     0.12100
H671        H  0.02346811  0.97669010  0.62272883     0.11500
H672        H  0.99328142  0.97536531  0.61836011     0.11800
H673        H  0.04950720  0.94744950  0.62478561     0.14500
H674        H  0.05379307  0.89930680  0.55972162     0.13300
H675        H  0.96738232  0.91337929  0.56901993     0.11000
H676        H  0.97241945  0.94583252  0.64615191     0.13000
C677        C  0.87897500  0.96335078  0.82513265     0.19100
C678        C  0.89478864  0.97429182  0.81490334    -0.19000
C679        C  0.90168481  0.96612836  0.77975441    -0.11300
C680        C  0.89296177  0.94637393  0.75412648     0.21300
C681        C  0.87723472  0.93517497  0.76450892    -0.20700
C682        C  0.87036707  0.94324745  0.79967273    -0.11500
C683        C  0.89948679  0.93815891  0.71580952    -0.15700
C684        C  0.91573069  0.93864788  0.70703708    -0.29500
C685        C  0.87195853  0.97313208  0.86255113    -0.03800
C686        C  0.85557241  0.97301782  0.86992887    -0.40300
H687        H  0.90171353  0.98974137  0.83390216     0.12500
H688        H  0.91363412  0.97607037  0.77253057     0.12100
H689        H  0.87025957  0.91992364  0.74539002     0.11500
H690        H  0.85840618  0.93329945  0.80677305     0.11800
H691        H  0.89062762  0.93137535  0.69393535     0.14500
H692        H  0.92480960  0.94390705  0.72893482     0.13300
H693        H  0.88050399  0.98164745  0.88417523     0.11000
H694        H  0.84682198  0.96603532  0.84804757     0.13000
C695        C  0.02701905  0.42597831  0.42966505     0.19100
C696        C  0.01723928  0.44651552  0.40754582    -0.19000
C697        C  0.99996229  0.44724004  0.41105799    -0.11300
C698        C  0.99173562  0.42689756  0.43643217     0.21300
C699        C  0.00149228  0.40724963  0.45990681    -0.20700
C700        C  0.01894756  0.40662341  0.45650592    -0.11500
C701        C  0.97309216  0.42562935  0.43804352    -0.15700
C702        C  0.96376226  0.43200619  0.40715908    -0.29500
C703        C  0.04531578  0.42496497  0.42181025    -0.03800
C704        C  0.05694793  0.40943068  0.44239569    -0.40300
H705        H  0.02300008  0.46211224  0.38707499     0.12500
H706        H  0.99312540  0.46401133  0.39377717     0.12100
H707        H  0.99557579  0.39171209  0.48019333     0.11500
H708        H  0.02592074  0.39046594  0.47427509     0.11800
H709        H  0.96717240  0.41793107  0.46398936     0.14500
H710        H  0.97013973  0.43740314  0.38094409     0.13300
H711        H  0.04939259  0.43816795  0.39720570     0.11000
H712        H  0.05349511  0.39776274  0.46851777     0.13000
C713        C  0.91245441  0.23725757  0.43469473     0.19100
C714        C  0.89748605  0.25420697  0.43082666    -0.19000
C715        C  0.89720008  0.28758970  0.43139502    -0.11300
C716        C  0.91188689  0.30525867  0.43566374     0.21300
C717        C  0.92690738  0.28844543  0.44126776    -0.20700
C718        C  0.92718207  0.25472434  0.44083610    -0.11500
C719        C  0.91098386  0.34044233  0.42858199    -0.15700
C720        C  0.92293026  0.36215714  0.43641589    -0.29500
C721        C  0.91222941  0.20212703  0.42667052    -0.03800
C722        C  0.92394918  0.18077109  0.43728326    -0.40300
H723        H  0.88596513  0.24153809  0.42580276     0.12500
H724        H  0.88545718  0.29969964  0.42678716     0.12100
H725        H  0.93854589  0.30111852  0.44385392     0.11500
H726        H  0.93901735  0.24253131  0.44307826     0.11800
H727        H  0.89982612  0.34877219  0.41430915     0.14500
H728        H  0.93365945  0.35555162  0.45330317     0.13300
H729        H  0.90178219  0.19349442  0.41003886     0.11000
H730        H  0.93380690  0.18794693  0.45649512     0.13000
C731        C  0.87232155  0.45892953  0.21553249     0.19100
C732        C  0.88856640  0.46940123  0.22293410    -0.19000
C733        C  0.89625799  0.46310360  0.25759845    -0.11300
C734        C  0.88791366  0.44574896  0.28573205     0.21300
C735        C  0.87167907  0.43527000  0.27841306    -0.20700
C736        C  0.86396697  0.44156671  0.24368837    -0.11500
C737        C  0.89545339  0.43907188  0.32338088    -0.15700
C738        C  0.91191018  0.43962790  0.33003753    -0.29500
C739        C  0.86481106  0.46679109  0.17813257    -0.03800
C740        C  0.84874631  0.46230338  0.16876602    -0.40300
H741        H  0.89530368  0.48292513  0.20193077     0.12500
H742        H  0.90857099  0.47256564  0.26231799     0.12100
H743        H  0.86494824  0.42196828  0.29962233     0.11500
H744        H  0.85156151  0.43254182  0.23929782     0.11800
H745        H  0.88718982  0.43293939  0.34652144     0.14500
H746        H  0.92048073  0.44427146  0.30709016     0.13300
H747        H  0.87301953  0.47744967  0.15744251     0.11000
H748        H  0.84009075  0.45206168  0.18868685     0.13000
C749        C  0.02526386  0.61046119  0.64505202     0.19100
C750        C  0.01534680  0.63817925  0.64481763    -0.19000
C751        C  0.99794631  0.63607329  0.64291476    -0.11300
C752        C  0.99010358  0.60608127  0.64248046     0.21300
C753        C  0.00005511  0.57840398  0.64262726    -0.20700
C754        C  0.01744269  0.58052528  0.64329632    -0.11500
C755        C  0.97171411  0.60286492  0.64585907    -0.15700
C756        C  0.96061467  0.62272815  0.62948692    -0.29500
C757        C  0.04354144  0.61302878  0.65105251    -0.03800
C758        C  0.05472498  0.59553664  0.63141282    -0.40300
H759        H  0.02108700  0.66151799  0.64662509     0.12500
H760        H  0.99063828  0.65783212  0.64362611     0.12100
H761        H  0.99433138  0.55501237  0.64279183     0.11500
H762        H  0.02475122  0.55877163  0.64421974     0.11800
H763        H  0.96710777  0.58253044  0.66164062     0.14500
H764        H  0.96487823  0.64123866  0.61046729     0.13300
H765        H  0.04794548  0.63041042  0.67172970     0.11000
H766        H  0.05057285  0.58050494  0.60807825     0.13000
C767        C  0.91730663  0.80402466  0.59450152     0.19100
C768        C  0.90349706  0.78368873  0.59571011    -0.19000
C769        C  0.90534711  0.75050716  0.59203313    -0.11300
C770        C  0.92123847  0.73650905  0.58795010     0.21300
C771        C  0.93494275  0.75708402  0.58444521    -0.20700
C772        C  0.93304252  0.79040111  0.58765795    -0.11500
C773        C  0.92431257  0.70109548  0.59091641    -0.15700
C774        C  0.91276495  0.68015049  0.60278555    -0.29500
C775        C  0.91502672  0.83833534  0.60546579    -0.03800
C776        C  0.92569592  0.86207110  0.59700670    -0.40300
H777        H  0.89120887  0.79346354  0.60073161     0.12500
H778        H  0.89423680  0.73625085  0.59361027     0.12100
H779        H  0.94732798  0.74728384  0.58107062     0.11500
H780        H  0.94404485  0.80514243  0.58702360     0.11800
H781        H  0.93703921  0.69264995  0.58814282     0.14500
H782        H  0.90020794  0.68820340  0.60821183     0.13300
H783        H  0.90418509  0.84402806  0.62251521     0.11000
H784        H  0.93583037  0.85760368  0.57744827     0.13000
C785        C  0.87430776  0.58790979  0.82482602     0.19100
C786        C  0.86951426  0.58417951  0.78688988    -0.19000
C787        C  0.88000240  0.59366221  0.75777494    -0.11300
C788        C  0.89560591  0.60710936  0.76592596     0.21300
C789        C  0.90012761  0.61236711  0.80378923    -0.20700
C790        C  0.88961856  0.60268261  0.83311801    -0.11500
C791        C  0.90703223  0.61584210  0.73482904    -0.15700
C792        C  0.90797493  0.59750372  0.70356499    -0.29500
C793        C  0.86281349  0.57624851  0.85443188    -0.03800
C794        C  0.86748326  0.56935064  0.89002209    -0.40300
H795        H  0.85767915  0.57346128  0.77968428     0.12500
H796        H  0.87585379  0.59050216  0.72879862     0.12100
H797        H  0.91193087  0.62334773  0.81064859     0.11500
H798        H  0.89350413  0.60704402  0.86200936     0.11800
H799        H  0.91423834  0.63768239  0.73700833     0.14500
H800        H  0.90130360  0.57495809  0.70314333     0.13300
H801        H  0.85012518  0.57148650  0.84572842     0.11000
H802        H  0.88023956  0.57263187  0.89905093     0.13000
C803        C  0.99280406  0.48630658  0.50838457     0.19100
C804        C  0.00169775  0.46495724  0.53107004    -0.19000
C805        C  0.01893697  0.46372641  0.52886359    -0.11300
C806        C  0.02739488  0.48395093  0.50385058     0.21300
C807        C  0.01839174  0.50298397  0.47866763    -0.20700
C808        C  0.00117708  0.50415725  0.48081505    -0.11500
C809        C  0.04551518  0.48724933  0.50472940    -0.15700
C810        C  0.05427032  0.48341207  0.53666075    -0.29500
C811        C  0.97491735  0.49019910  0.51486490    -0.03800
C812        C  0.96711499  0.51792064  0.50823766    -0.40300
H813        H  0.99536379  0.45020380  0.55155151     0.12500
H814        H  0.02557624  0.44749040  0.54723371     0.12100
H815        H  0.02471120  0.51795637  0.45838830     0.11500
H816        H  0.99452777  0.51941336  0.46130939     0.11800
H817        H  0.05165514  0.49564705  0.47926350     0.14500
H818        H  0.04844748  0.47550144  0.56263922     0.13300
H819        H  0.96811713  0.47020766  0.52668791     0.11000
H820        H  0.97366486  0.53833150  0.49688351     0.13000
C821        C  0.83786002  0.50591876  0.53646828     0.19100
C822        C  0.82825560  0.47882412  0.52834414    -0.19000
C823        C  0.81096407  0.48132156  0.52511252    -0.11300
C824        C  0.80296128  0.51091290  0.53083714     0.21300
C825        C  0.81249559  0.53758374  0.54111535    -0.20700
C826        C  0.82980311  0.53524157  0.54352065    -0.11500
C827        C  0.78471068  0.51452606  0.52655154    -0.15700
C828        C  0.77612420  0.49892180  0.49950582    -0.29500
C829        C  0.85624819  0.50325302  0.53690776    -0.03800
C830        C  0.86589876  0.52611602  0.52206083    -0.40300
H831        H  0.83418806  0.45589471  0.52339800     0.12500
H832        H  0.80386757  0.46012150  0.51828638     0.12100
H833        H  0.80656739  0.56048187  0.54631190     0.11500
H834        H  0.83688237  0.55633832  0.55089521     0.11800
H835        H  0.77841365  0.53194332  0.54445081     0.14500
H836        H  0.78264494  0.48341876  0.47965832     0.13300
H837        H  0.86185655  0.48119935  0.54691718     0.11000
H838        H  0.86014551  0.54696095  0.50927251     0.13000
C839        C  0.62724778  0.41624393  0.21529429     0.19100
C840        C  0.64363129  0.42747476  0.21654949    -0.19000
C841        C  0.65109122  0.43552413  0.25104796    -0.11300
C842        C  0.64236280  0.43199882  0.28525962     0.21300
C843        C  0.62603241  0.42037215  0.28405121    -0.20700
C844        C  0.61855235  0.41237378  0.24947547    -0.11500
C845        C  0.64953326  0.44194053  0.32230872    -0.15700
C846        C  0.66596997  0.44389740  0.32888936    -0.29500
C847        C  0.61979986  0.40878373  0.17780586    -0.03800
C848        C  0.60336892  0.40949396  0.17072575    -0.40300
H849        H  0.65057744  0.43072362  0.19060744     0.12500
H850        H  0.66349674  0.44531404  0.25054728     0.12100
H851        H  0.61903901  0.41746443  0.30997330     0.11500
H852        H  0.60605512  0.40296749  0.24974375     0.11800
H853        H  0.64089961  0.44770836  0.34496057     0.14500
H854        H  0.67477542  0.43634939  0.30736696     0.13300
H855        H  0.62822915  0.40436651  0.15429810     0.11000
H856        H  0.59464132  0.41525414  0.19315128     0.13000
C857        C  0.64375080  0.57106005  0.67486024     0.19100
C858        C  0.64895956  0.56406254  0.71178900    -0.19000
C859        C  0.63851656  0.56983822  0.74259987    -0.11300
C860        C  0.62256667  0.58295705  0.73721921     0.21300
C861        C  0.61753491  0.59106224  0.70043865    -0.20700
C862        C  0.62796939  0.58500345  0.66943723    -0.11500
C863        C  0.61143118  0.58958971  0.76991176    -0.15700
C864        C  0.61173032  0.57133075  0.80109432    -0.29500
C865        C  0.65528209  0.56384425  0.64308738    -0.03800
C866        C  0.65015007  0.55747513  0.60758778    -0.40300
H867        H  0.66114161  0.55382296  0.71682772     0.12500
H868        H  0.64311435  0.56452576  0.77069223     0.12100
H869        H  0.60546125  0.60183991  0.69567455     0.11500
H870        H  0.62374092  0.59169993  0.64148701     0.11800
H871        H  0.60307328  0.61000590  0.76867339     0.14500
H872        H  0.61941600  0.54994376  0.80116083     0.13300
H873        H  0.66838538  0.56146544  0.64990373     0.11000
H874        H  0.63699838  0.55777538  0.60081530     0.13000
C875        C  0.83996059  0.99754659  0.49093486     0.19100
C876        C  0.83059050  0.96956894  0.49482904    -0.19000
C877        C  0.81327909  0.97038900  0.49093957    -0.11300
C878        C  0.80506536  0.99921906  0.48237097     0.21300
C879        C  0.81452452  0.02692115  0.47718451    -0.20700
C880        C  0.83177655  0.02621011  0.48173135    -0.11500
C881        C  0.78673613  0.00112613  0.47788955    -0.15700
C882        C  0.77622397  0.98268755  0.49754578    -0.29500
C883        C  0.85829025  0.99616906  0.49521412    -0.03800
C884        C  0.86697588  0.02027348  0.51088862    -0.40300
H885        H  0.83666923  0.94711039  0.50129667     0.12500
H886        H  0.80640945  0.94838910  0.49400990     0.12100
H887        H  0.80851651  0.04929336  0.47001898     0.11500
H888        H  0.83872356  0.04797652  0.47740656     0.11800
H889        H  0.78175268  0.01976393  0.45981085     0.14500
H890        H  0.78105847  0.96571274  0.51795146     0.13300
H891        H  0.86468808  0.97440847  0.48657292     0.11000
H892        H  0.86046832  0.04097158  0.52230226     0.13000
C893        C  0.60353471  0.20716614  0.06720738     0.19100
C894        C  0.61870342  0.22351890  0.06554103    -0.19000
C895        C  0.61914990  0.25687404  0.06392844    -0.11300
C896        C  0.60444761  0.27498971  0.06391264     0.21300
C897        C  0.58914203  0.25870294  0.06332532    -0.20700
C898        C  0.58868996  0.22505638  0.06495395    -0.11500
C899        C  0.60577793  0.31012347  0.07102422    -0.15700
C900        C  0.59403942  0.33218204  0.06286031    -0.29500
C901        C  0.60395262  0.17251075  0.07716662    -0.03800
C902        C  0.59166364  0.15128144  0.07063830    -0.40300
H903        H  0.63032531  0.21048372  0.06735357     0.12500
H904        H  0.63110858  0.26867399  0.06460911     0.12100
H905        H  0.57755317  0.27187288  0.06419993     0.11500
H906        H  0.57676342  0.21334710  0.06697291     0.11800
H907        H  0.61696904  0.31807593  0.08549582     0.14500
H908        H  0.58335709  0.32569266  0.04570134     0.13300
H909        H  0.61504164  0.16418023  0.09170730     0.11000
H910        H  0.58104000  0.15793337  0.05342869     0.13000
C911        C  0.63982210  0.05190911  0.29470510     0.19100
C912        C  0.62387491  0.04083003  0.28546023    -0.19000
C913        C  0.61667402  0.04773786  0.25033229    -0.11300
C914        C  0.62521321  0.06637036  0.22364539     0.21300
C915        C  0.64117213  0.07738330  0.23281401    -0.20700
C916        C  0.64836521  0.07052698  0.26797451    -0.11500
C917        C  0.61815970  0.07397113  0.18567081    -0.15700
C918        C  0.60179596  0.07331709  0.17773310    -0.29500
C919        C  0.64693228  0.04378427  0.33251350    -0.03800
C920        C  0.66325170  0.04518445  0.34070815    -0.40300
H921        H  0.61701344  0.02637525  0.30535927     0.12500
H922        H  0.60458011  0.03785686  0.24410082     0.12100
H923        H  0.64805060  0.09169475  0.21281131     0.11500
H924        H  0.66048071  0.08034271  0.27406444     0.11800
H925        H  0.62671842  0.08080123  0.16339439     0.14500
H926        H  0.59296087  0.06791816  0.19990354     0.13300
H927        H  0.63842021  0.03514220  0.35393808     0.11000
H928        H  0.67208715  0.05232661  0.31926884     0.13000
C929        C  0.59462011  0.70942408  0.90760174     0.19100
C930        C  0.58127963  0.73075292  0.91303468    -0.19000
C931        C  0.58353799  0.76390734  0.91025334    -0.11300
C932        C  0.59924215  0.77659353  0.90158889     0.21300
C933        C  0.61267996  0.75540230  0.89735417    -0.20700
C934        C  0.61046641  0.72231957  0.90044183    -0.11500
C935        C  0.60159604  0.81094609  0.89177927    -0.15700
C936        C  0.59166644  0.83491865  0.90403731    -0.29500
C937        C  0.59112368  0.67432249  0.90451173    -0.03800
C938        C  0.60296637  0.65147912  0.90491168    -0.40300
H939        H  0.56890082  0.72166521  0.91801921     0.12500
H940        H  0.57276870  0.77931474  0.91275932     0.12100
H941        H  0.62486783  0.76442276  0.89019669     0.11500
H942        H  0.62108190  0.70711941  0.89498789     0.11800
H943        H  0.61172471  0.81645788  0.87266186     0.14500
H944        H  0.58239876  0.83024724  0.92555554     0.13300
H945        H  0.57845816  0.66724699  0.89788837     0.11000
H946        H  0.61576868  0.65770145  0.91076551     0.13000
C947        C  0.63416530  0.93646321  0.67787364     0.19100
C948        C  0.61870050  0.94895180  0.68899046    -0.19000
C949        C  0.61196565  0.94148274  0.72439934    -0.11300
C950        C  0.62054255  0.92101810  0.74926878     0.21300
C951        C  0.63576877  0.90792827  0.73772419    -0.20700
C952        C  0.64241972  0.91517280  0.70233387    -0.11500
C953        C  0.61448104  0.91373414  0.78797752    -0.15700
C954        C  0.59843087  0.91527896  0.79825515    -0.29500
C955        C  0.64147645  0.94644330  0.64106280    -0.03800
C956        C  0.65794111  0.94576191  0.63466716    -0.40300
H957        H  0.61202981  0.96523672  0.67066864     0.12500
H958        H  0.60033904  0.95257251  0.73253368     0.12100
H959        H  0.64255496  0.89192307  0.75618663     0.11500
H960        H  0.65400820  0.90387093  0.69438274     0.11800
H961        H  0.62356766  0.90596070  0.80883420     0.14500
H962        H  0.58900126  0.92156413  0.77757608     0.13300
H963        H  0.63322079  0.95601515  0.61954692     0.11000
H964        H  0.66636274  0.93775901  0.65666692     0.13000
C965        C  0.33399962  0.98121536  0.98804864     0.19100
C966        C  0.32641977  0.96706974  0.01947844    -0.19000
C967        C  0.30944564  0.96045991  0.01920634    -0.11300
C968        C  0.29973155  0.96780641  0.98730259     0.21300
C969        C  0.30737301  0.98095627  0.95539419    -0.20700
C970        C  0.32434268  0.98773241  0.95571725    -0.11500
C971        C  0.28159325  0.96246807  0.98654037    -0.15700
C972        C  0.27218787  0.96540366  0.01773211    -0.29500
C973        C  0.35211902  0.98716159  0.98952817    -0.03800
C974        C  0.36005872  0.00770593  0.96675692    -0.40300
H975        H  0.33365160  0.96121668  0.04440244     0.12500
H976        H  0.30401414  0.94935481  0.04383802     0.12100
H977        H  0.30014014  0.98641803  0.93033796     0.11500
H978        H  0.32980736  0.99750671  0.93038769     0.11800
H979        H  0.27568029  0.95928193  0.95911932     0.14500
H980        H  0.27785275  0.97130143  0.04479014     0.13300
H981        H  0.35921916  0.97406408  0.01057370     0.11000
H982        H  0.35326844  0.02205075  0.94645568     0.13000
C983        C  0.71354748  0.98307147  0.00648159     0.19100
C984        C  0.70449602  0.98613369  0.97271512    -0.19000
C985        C  0.68715270  0.98592404  0.97308063    -0.11300
C986        C  0.67850910  0.98231710  0.00734249     0.21300
C987        C  0.68755222  0.97805702  0.04095395    -0.20700
C988        C  0.70491429  0.97855564  0.04063809    -0.11500
C989        C  0.66011811  0.98157210  0.00870847    -0.15700
C990        C  0.65041566  0.99723012  0.98385252    -0.29500
C991        C  0.73192814  0.98450082  0.00479215    -0.03800
C992        C  0.74135172  0.99477101  0.03386195    -0.40300
H993        H  0.71087317  0.98909571  0.94597344     0.12500
H994        H  0.68058665  0.98807161  0.94645056     0.12100
H995        H  0.68115616  0.97459573  0.06757207     0.11500
H996        H  0.71148753  0.97499518  0.06704111     0.11800
H997        H  0.65439041  0.96858085  0.03178579     0.14500
H998        H  0.65591328  0.01213624  0.96222566     0.13300
H999        H  0.73774424  0.97907947  0.97777319     0.11000
H1000       H  0.73561914  0.00216930  0.06030896     0.13000
C1001       C  0.48774489  0.02014181  0.00088357     0.19100
C1002       C  0.49679312  0.99882493  0.02322953    -0.19000
C1003       C  0.51402726  0.99819176  0.02113906    -0.11300
C1004       C  0.52236950  0.01897194  0.99649522     0.21300
C1005       C  0.51334059  0.04204469  0.97658621    -0.20700
C1006       C  0.49611213  0.04271144  0.97876785    -0.11500
C1007       C  0.54041036  0.01725328  0.99069226    -0.15700
C1008       C  0.54926254  0.99075816  0.99740696    -0.29500
C1009       C  0.46963259  0.01727650  0.99978594    -0.03800
C1010       C  0.46105123  0.02269429  0.96793274    -0.40300
H1011       H  0.49049745  0.98189624  0.04127403     0.12500
H1012       H  0.52065639  0.98133463  0.03867804     0.12100
H1013       H  0.51959226  0.05896442  0.95846589     0.11500
H1014       H  0.48937377  0.06049999  0.96271452     0.11800
H1015       H  0.54658209  0.03830472  0.97965012     0.14500
H1016       H  0.54355172  0.96923762  0.00817092     0.13300
H1017       H  0.46337979  0.00826166  0.02479770     0.11000
H1018       H  0.46718657  0.03087720  0.94242669     0.13000
C1019       C  0.22359662  0.99661342  0.49011671     0.19100
C1020       C  0.21434526  0.00058903  0.52351592    -0.19000
C1021       C  0.19699272  0.99844392  0.52301528    -0.11300
C1022       C  0.18847699  0.99199770  0.48896891     0.21300
C1023       C  0.19774741  0.98714950  0.45576775    -0.20700
C1024       C  0.21508953  0.98952118  0.45621398    -0.11500
C1025       C  0.17006167  0.98894064  0.48724039    -0.15700
C1026       C  0.15967497  0.00355109  0.51178600    -0.29500
C1027       C  0.24205755  0.99882246  0.49210759    -0.03800
C1028       C  0.25170952  0.00570681  0.46212670    -0.40300
H1029       H  0.22057742  0.00546875  0.55015467     0.12500
H1030       H  0.19036151  0.00121542  0.54945486     0.12100
H1031       H  0.19153209  0.98158251  0.42930073     0.11500
H1032       H  0.22174277  0.98512556  0.43009874     0.11800
H1033       H  0.16484548  0.97513076  0.46392149     0.14500
H1034       H  0.16458147  0.01904312  0.53386910     0.13300
H1035       H  0.24782353  0.99562181  0.51965263     0.11000
H1036       H  0.24609993  0.01070066  0.43483895     0.13000
C1037       C  0.48865816  0.08754644  0.06576495     0.19100
C1038       C  0.49765432  0.06370914  0.08479751    -0.19000
C1039       C  0.51501479  0.06264613  0.08329803    -0.11300
C1040       C  0.52395840  0.08579937  0.06311730     0.21300
C1041       C  0.51497412  0.10862946  0.04231926    -0.20700
C1042       C  0.49751776  0.10967256  0.04375749    -0.11500
C1043       C  0.54254240  0.08733192  0.06458626    -0.15700
C1044       C  0.55112432  0.07802157  0.09549376    -0.29500
C1045       C  0.47034965  0.08979804  0.07255596    -0.03800
C1046       C  0.45946388  0.10670225  0.05140612    -0.40300
H1047       H  0.49121935  0.04603018  0.10148904     0.12500
H1048       H  0.52137789  0.04373254  0.09828955     0.12100
H1049       H  0.52149954  0.12653066  0.02616881     0.11500
H1050       H  0.49113670  0.12859737  0.02887451     0.11800
H1051       H  0.54900945  0.09865991  0.04137387     0.14500
H1052       H  0.54425092  0.06903803  0.11957291     0.13300
H1053       H  0.46561748  0.07664894  0.09660672     0.11000
H1054       H  0.46352560  0.11784559  0.02541271     0.13000
C1055       C  0.39990894  0.07794338  0.19430426     0.19100
C1056       C  0.40518477  0.05591303  0.22153245    -0.19000
C1057       C  0.39502606  0.04861351  0.25234258    -0.11300
C1058       C  0.37926826  0.06306715  0.25621448     0.21300
C1059       C  0.37386743  0.08451204  0.22846214    -0.20700
C1060       C  0.38407875  0.09201892  0.19789649    -0.11500
C1061       C  0.36794887  0.05552966  0.28804018    -0.15700
C1062       C  0.37356018  0.04603106  0.32195046    -0.29500
C1063       C  0.41033455  0.08357149  0.16050372    -0.03800
C1064       C  0.40980063  0.11111260  0.14119349    -0.40300
H1065       H  0.41714400  0.04416131  0.21879157     0.12500
H1066       H  0.39938583  0.03103745  0.27238909     0.12100
H1067       H  0.36168375  0.09548448  0.23041972     0.11500
H1068       H  0.37932158  0.10807053  0.17653247     0.11800
H1069       H  0.35470144  0.05898003  0.28377298     0.14500
H1070       H  0.38682120  0.04417878  0.32709991     0.13300
H1071       H  0.41788414  0.06389732  0.14983617     0.11000
H1072       H  0.40297090  0.13138395  0.15270948     0.13000
C1073       C  0.52132310  0.91461425  0.87712298     0.19100
C1074       C  0.51003734  0.94016881  0.88013179    -0.19000
C1075       C  0.49289428  0.93481526  0.87741253    -0.11300
C1076       C  0.48679831  0.90389387  0.87035007     0.21300
C1077       C  0.49806944  0.87836159  0.86750775    -0.20700
C1078       C  0.51516003  0.88354639  0.87146691    -0.11500
C1079       C  0.46893175  0.89831423  0.86245570    -0.15700
C1080       C  0.45678777  0.91135309  0.88363810    -0.29500
C1081       C  0.53940108  0.92112741  0.87469517    -0.03800
C1082       C  0.55104697  0.90168645  0.88950773    -0.40300
H1083       H  0.51452207  0.96436463  0.88386071     0.12500
H1084       H  0.48445987  0.95500525  0.87901162     0.12100
H1085       H  0.49363898  0.85440894  0.86164453     0.11500
H1086       H  0.52359160  0.86352887  0.86806499     0.11800
H1087       H  0.46571408  0.88225291  0.83929137     0.14500
H1088       H  0.45997071  0.92484982  0.90900092     0.13300
H1089       H  0.54325509  0.94206684  0.85896968     0.11000
H1090       H  0.54741234  0.88233555  0.90804819     0.13000
C1091       C  0.39804069  0.93875349  0.73976111     0.19100
C1092       C  0.40360534  0.96072448  0.71285484    -0.19000
C1093       C  0.39384349  0.96810112  0.68130877    -0.11300
C1094       C  0.37822914  0.95362105  0.67613774     0.21300
C1095       C  0.37261392  0.93185640  0.70316888    -0.20700
C1096       C  0.38238071  0.92442250  0.73463052    -0.11500
C1097       C  0.36720234  0.96155312  0.64381419    -0.15700
C1098       C  0.37304151  0.97185127  0.61053281    -0.29500
C1099       C  0.40805285  0.93378990  0.77457310    -0.03800
C1100       C  0.40618531  0.90840752  0.79724600    -0.40300
H1101       H  0.41543405  0.97261564  0.71658605     0.12500
H1102       H  0.39837304  0.98584314  0.66177620     0.12100
H1103       H  0.36054369  0.92075827  0.70010113     0.11500
H1104       H  0.37728351  0.90836010  0.75541022     0.11800
H1105       H  0.35396856  0.95748159  0.64705082     0.14500
H1106       H  0.38632021  0.97402690  0.60610587     0.13300
H1107       H  0.41662632  0.95254540  0.78306270     0.11000
H1108       H  0.39829018  0.88872736  0.78852200     0.13000
C1109       C  0.18377345  0.49030775  0.54513910     0.19100
C1110       C  0.19376285  0.46293278  0.54151427    -0.19000
C1111       C  0.21100294  0.46565980  0.53817690    -0.11300
C1112       C  0.21858521  0.49587270  0.53922321     0.21300
C1113       C  0.20868060  0.52314178  0.54464181    -0.20700
C1114       C  0.19140052  0.52047162  0.54718781    -0.11500
C1115       C  0.23678987  0.49938661  0.53489246    -0.15700
C1116       C  0.24544071  0.48154278  0.51000195    -0.29500
C1117       C  0.16548293  0.48669336  0.54739516    -0.03800
C1118       C  0.15489723  0.50804663  0.53225635    -0.40300
H1119       H  0.18817819  0.43942241  0.54051458     0.12500
H1120       H  0.21840769  0.44415695  0.53506486     0.12100
H1121       H  0.21430335  0.54660756  0.54609826     0.11500
H1122       H  0.18405288  0.54193776  0.55114499     0.11800
H1123       H  0.24296709  0.51840407  0.55052007     0.14500
H1124       H  0.23897836  0.46451011  0.49192916     0.13300
H1125       H  0.16063430  0.46497127  0.55987907     0.11000
H1126       H  0.15968305  0.52857879  0.51717487     0.13000
C1127       C  0.52445847  0.42302881  0.09553994     0.19100
C1128       C  0.51540277  0.44550449  0.11679997    -0.19000
C1129       C  0.49815699  0.44733714  0.11393167    -0.11300
C1130       C  0.48934866  0.42674463  0.08971461     0.21300
C1131       C  0.49836178  0.40464227  0.06744326    -0.20700
C1132       C  0.51576990  0.40279762  0.07033456    -0.11500
C1133       C  0.47086068  0.42786352  0.09160227    -0.15700
C1134       C  0.46023500  0.41162837  0.06905787    -0.29500
C1135       C  0.54266886  0.42063676  0.10290470    -0.03800
C1136       C  0.55371674  0.40412603  0.08171864    -0.40300
H1137       H  0.52168211  0.46144918  0.13639389     0.12500
H1138       H  0.49162437  0.46461371  0.13145168     0.12100
H1139       H  0.49207633  0.38807932  0.04873048     0.11500
H1140       H  0.52221820  0.38485800  0.05374942     0.11800
H1141       H  0.46566711  0.44272316  0.11399741     0.14500
H1142       H  0.46467510  0.39861203  0.04441784     0.13300
H1143       H  0.54723043  0.43388886  0.12730447     0.11000
H1144       H  0.54983691  0.39269973  0.05552412     0.13000
C1145       C  0.43057961  0.29710927  0.00986910     0.19100
C1146       C  0.44566719  0.28018897  0.01106049    -0.19000
C1147       C  0.44583102  0.24671629  0.00870854    -0.11300
C1148       C  0.43092000  0.22963528  0.00488159     0.21300
C1149       C  0.41607260  0.24689293  0.99923744    -0.20700
C1150       C  0.41589263  0.28025103  0.00193659    -0.11500
C1151       C  0.43096750  0.19441244  0.01140291    -0.15700
C1152       C  0.41805543  0.17997873  0.02824220    -0.29500
C1153       C  0.43026237  0.33157592  0.02062491    -0.03800
C1154       C  0.41794472  0.34375959  0.04216105    -0.40300
H1155       H  0.45720042  0.29268386  0.01647051     0.12500
H1156       H  0.45748891  0.23410919  0.01246435     0.12100
H1157       H  0.40444206  0.23466934  0.99424949     0.11500
H1158       H  0.40415994  0.29274440  0.99919703     0.11800
H1159       H  0.44263846  0.18144477  0.00871292     0.14500
H1160       H  0.40700184  0.19382190  0.03491165     0.13300
H1161       H  0.44138084  0.34564755  0.01596092     0.11000
H1162       H  0.40770858  0.32843508  0.05030699     0.13000
C1163       C  0.37449482  0.43620833  0.27578837     0.19100
C1164       C  0.39080718  0.42470244  0.27183577    -0.19000
C1165       C  0.39733898  0.41756121  0.23605371    -0.11300
C1166       C  0.38772608  0.42219148  0.20315717     0.21300
C1167       C  0.37138086  0.43346061  0.20709206    -0.20700
C1168       C  0.36484987  0.44064155  0.24287328    -0.11500
C1169       C  0.39423573  0.41562756  0.16438727    -0.15700
C1170       C  0.41052120  0.41566526  0.15586027    -0.29500
C1171       C  0.36823922  0.44392125  0.31453612    -0.03800
C1172       C  0.35203214  0.44705414  0.32319121    -0.40300
H1173       H  0.39851774  0.42098459  0.29661270     0.12500
H1174       H  0.40982536  0.40804929  0.23451939     0.12100
H1175       H  0.36371095  0.43729836  0.18227758     0.11500
H1176       H  0.35238722  0.45023351  0.24428928     0.11800
H1177       H  0.38531922  0.41250679  0.14151259     0.14500
H1178       H  0.41960701  0.42028593  0.17791381     0.13300
H1179       H  0.37738505  0.44611803  0.33705337     0.11000
H1180       H  0.34259997  0.44331817  0.30168276     0.13000
C1181       C  0.52784466  0.58053734  0.85053009     0.19100
C1182       C  0.51849834  0.56440535  0.82278290    -0.19000
C1183       C  0.50115269  0.56569041  0.82278589    -0.11300
C1184       C  0.49248676  0.58309821  0.85058816     0.21300
C1185       C  0.50174856  0.59911495  0.87882771    -0.20700
C1186       C  0.51923311  0.59785342  0.87880409    -0.11500
C1187       C  0.47397675  0.58516106  0.84715870    -0.15700
C1188       C  0.46353811  0.59594195  0.87434948    -0.29500
C1189       C  0.54639507  0.57923902  0.84735621    -0.03800
C1190       C  0.55737473  0.59035411  0.87328901    -0.40300
H1191       H  0.52466103  0.55091991  0.80054583     0.12500
H1192       H  0.49446149  0.55321696  0.80054357     0.12100
H1193       H  0.49564754  0.61337507  0.90036161     0.11500
H1194       H  0.52584239  0.61106400  0.90044648     0.11800
H1195       H  0.46874671  0.57677429  0.82058631     0.14500
H1196       H  0.46839014  0.60251330  0.90196834     0.13300
H1197       H  0.55118276  0.56767919  0.82204885     0.11000
H1198       H  0.55295802  0.60046471  0.89976105     0.13000
C1199       C  0.41859063  0.72503621  0.92312138     0.19100
C1200       C  0.40505092  0.74491811  0.93196099    -0.19000
C1201       C  0.40705385  0.77801800  0.93564682    -0.11300
C1202       C  0.42266680  0.79222231  0.92942610     0.21300
C1203       C  0.43642471  0.77201420  0.92330918    -0.20700
C1204       C  0.43444463  0.73880745  0.92018690    -0.11500
C1205       C  0.42485585  0.82749573  0.92438950    -0.15700
C1206       C  0.41216077  0.84762979  0.91712876    -0.29500
C1207       C  0.41533396  0.69139886  0.91128246    -0.03800
C1208       C  0.42665423  0.66759875  0.91263129    -0.40300
H1209       H  0.39271350  0.73491047  0.93458264     0.12500
H1210       H  0.39615903  0.79220846  0.94192160     0.12100
H1211       H  0.44861991  0.78207785  0.91859572     0.11500
H1212       H  0.44514477  0.72432293  0.91283836     0.11800
H1213       H  0.43741065  0.83615964  0.91979024     0.14500
H1214       H  0.39947542  0.83921079  0.91824648     0.13300
H1215       H  0.40322035  0.68645615  0.89898515     0.11000
H1216       H  0.43829352  0.67106527  0.92763554     0.13000
C1217       C  0.37920449  0.55568943  0.67879767     0.19100
C1218       C  0.37692187  0.58428034  0.69913897    -0.19000
C1219       C  0.38685530  0.59148850  0.73062291    -0.11300
C1220       C  0.39926287  0.56996531  0.74268288     0.21300
C1221       C  0.40153088  0.54140409  0.72216776    -0.20700
C1222       C  0.39165659  0.53430339  0.69061645    -0.11500
C1223       C  0.40934752  0.57497062  0.77767106    -0.15700
C1224       C  0.40947361  0.60198326  0.79867751    -0.29500
C1225       C  0.36777461  0.54798615  0.64692505    -0.03800
C1226       C  0.37212819  0.52911300  0.61755513    -0.40300
H1227       H  0.36730015  0.60099752  0.69081960     0.12500
H1228       H  0.38435715  0.61350280  0.74572968     0.12100
H1229       H  0.41080342  0.52416025  0.73101205     0.11500
H1230       H  0.39346381  0.51158631  0.67636411     0.11800
H1231       H  0.41668108  0.55482021  0.78763237     0.14500
H1232       H  0.40269410  0.62298972  0.78961130     0.13300
H1233       H  0.35552835  0.55898025  0.64719796     0.11000
H1234       H  0.38473612  0.51999788  0.61541078     0.13000
C1235       C  0.33700832  0.53154874  0.01116192     0.19100
C1236       C  0.32624000  0.55788837  0.00857969    -0.19000
C1237       C  0.30908131  0.55397332  0.01361471    -0.11300
C1238       C  0.30253113  0.52372965  0.02226944     0.21300
C1239       C  0.31341378  0.49773991  0.02611699    -0.20700
C1240       C  0.33043664  0.50149547  0.02029240    -0.11500
C1241       C  0.28454567  0.51856825  0.02895163    -0.15700
C1242       C  0.27255689  0.53411309  0.00988995    -0.29500
C1243       C  0.35511415  0.53535924  0.00482521    -0.03800
C1244       C  0.36363242  0.51340254  0.98477347    -0.40300
H1245       H  0.33107638  0.58132994  0.00206816     0.12500
H1246       H  0.30101863  0.57463740  0.01143630     0.12100
H1247       H  0.30869536  0.47433473  0.03327351     0.11500
H1248       H  0.33851296  0.48092733  0.02341440     0.11800
H1249       H  0.28110253  0.49975675  0.04845343     0.14500
H1250       H  0.27586831  0.55106701  0.98802772     0.13300
H1251       H  0.36137681  0.55624172  0.01630587     0.11000
H1252       H  0.35690651  0.49394087  0.97124259     0.13000
C1253       C  0.67962234  0.47595645  0.97187441     0.19100
C1254       C  0.69034044  0.47370881  0.94071412    -0.19000
C1255       C  0.70757252  0.47282355  0.94609821    -0.11300
C1256       C  0.71433375  0.47381091  0.98294669     0.21300
C1257       C  0.70353105  0.47515083  0.01401376    -0.20700
C1258       C  0.68638342  0.47628089  0.00861717    -0.11500
C1259       C  0.73246405  0.47294497  0.99060103    -0.15700
C1260       C  0.74404481  0.48154097  0.96533762    -0.29500
C1261       C  0.66141106  0.47700234  0.96582424    -0.03800
C1262       C  0.65146284  0.49412154  0.98878683    -0.40300
H1263       H  0.68536883  0.47292433  0.91218683     0.12500
H1264       H  0.71544608  0.47082870  0.92141687     0.12100
H1265       H  0.70838515  0.47549803  0.04266306     0.11500
H1266       H  0.67842797  0.47690277  0.03330150     0.11800
H1267       H  0.73632252  0.46680059  0.01912029     0.14500
H1268       H  0.74046334  0.48942754  0.93728509     0.13300
H1269       H  0.65617876  0.46405653  0.94186652     0.11000
H1270       H  0.65687278  0.50879938  0.01107419     0.13000
C1271       C  0.48964708  0.47236248  0.00192219     0.19100
C1272       C  0.50036630  0.48517300  0.02914265    -0.19000
C1273       C  0.51739179  0.48051213  0.02576735    -0.11300
C1274       C  0.52385468  0.46314387  0.99485979     0.21300
C1275       C  0.51305162  0.44724016  0.97016069    -0.20700
C1276       C  0.49596513  0.45183863  0.97361197    -0.11500
C1277       C  0.54168995  0.46397358  0.98623744    -0.15700
C1278       C  0.55024376  0.49097595  0.99181193    -0.29500
C1279       C  0.47217844  0.48255333  0.00225757    -0.03800
C1280       C  0.46376058  0.48706500  0.97001186    -0.40300
H1281       H  0.49564182  0.50019296  0.05184424     0.12500
H1282       H  0.52553163  0.49161230  0.04642147     0.12100
H1283       H  0.51784754  0.43301768  0.94684062     0.11500
H1284       H  0.48779245  0.44038760  0.95331710     0.11800
H1285       H  0.54766402  0.44293871  0.97413330     0.14500
H1286       H  0.54414743  0.51216577  0.00315319     0.13300
H1287       H  0.46640298  0.48820990  0.02933663     0.11000
H1288       H  0.46937028  0.48169688  0.94273290     0.13000
loop_ 
_geom_bond_atom_site_label_1 
_geom_bond_atom_site_label_2 
_geom_bond_distance 
_geom_bond_site_symmetry_2 
_ccdc_geom_bond_type 
O1           Cu9   2.030       .  S
O1           C11   1.283       .  A
O2           Cu9   2.034   1_556  S
O2           C12   1.278       .  A
O3           Cu9   1.969       .  S
O3           C13   1.272   1_554  A
O4           Cu9   1.990       .  S
O4           C14   1.274   1_554  A
O5          Cu10   2.022       .  S
O5           C14   1.280       .  A
O6          Cu10   2.001       .  S
O6           C13   1.278       .  A
O7          Cu10   2.008       .  S
O7           C12   1.280       .  A
O8          Cu10   2.010   1_554  S
O8           C11   1.275       .  A
Cu9         Cu10   2.376   1_554  S
C11         C215   1.481       .  S
C12         C203   1.483       .  S
C13        C1278   1.452       .  S
C14        C1262   1.470       .  S
O15         Cu23   1.998       .  S
O15          C25   1.277       .  A
O16         Cu23   2.015   1_556  S
O16          C26   1.275       .  A
O17         Cu23   2.029       .  S
O17          C27   1.281   1_554  A
O18         Cu23   2.006   1_556  S
O18          C28   1.279       .  A
O19         Cu24   1.973       .  S
O19          C28   1.271       .  A
O20         Cu24   1.993       .  S
O20          C27   1.275       .  A
O21         Cu24   2.017       .  S
O21          C26   1.281       .  A
O22         Cu24   2.027       .  S
O22          C25   1.279   1_556  A
Cu23        Cu24   2.369   1_554  S
C25          C48   1.475       .  S
C26          C36   1.479       .  S
C27        C1244   1.474       .  S
C28        C1280   1.455       .  S
C29          C30   1.533       .  S
C29          C35   1.528       .  S
C29          C33   1.538       .  S
C29        C1224   1.514       .  S
C30          H37   1.086       .  S
C30          C31   1.369       .  D
C31          C32   1.545       .  S
C31        C1208   1.491       .  S
C32          C36   1.551       .  S
C32          C34   1.545       .  S
C32          H38   1.111       .  S
C33          H39   1.084       .  S
C33          C34   1.374       .  D
C34        C1188   1.498       .  S
C35          H40   1.087       .  S
C35          C36   1.360       .  D
C41          C42   1.532       .  S
C41          C47   1.529       .  S
C41          C45   1.534       .  S
C41        C1170   1.514       .  S
C42          H49   1.086       .  S
C42          C43   1.367       .  D
C43          C44   1.545       .  S
C43        C1154   1.483       .  S
C44          C48   1.550       .  S
C44          C46   1.542       .  S
C44          H50   1.111       .  S
C45          H51   1.085       .  S
C45          C46   1.369       .  D
C46        C1134   1.492       .  S
C47          H52   1.087       .  S
C47          C48   1.365       .  D
N53          N54   1.323       .  A
N53          C57   1.347       .  A
N53         Cu61   2.080       .  S
N54          C55   1.345       .  A
N54         Cu60   2.080       .  S
C55          C56   1.382       .  A
C55          H58   1.082       .  S
C56        C1226   1.478       .  S
C56          C57   1.386       .  A
C57          H59   1.081       .  S
Cu60         N63   2.079       .  S
Cu61         N71   2.080       .  S
Cu62         N64   2.070       .  S
Cu62         N70   2.070       .  S
N63          N64   1.321       .  A
N63          C67   1.347       .  A
N64          C65   1.344       .  A
C65          C66   1.382       .  A
C65          H68   1.082       .  S
C66        C1172   1.480       .  S
C66          C67   1.388       .  A
C67          H69   1.081       .  S
N70          N71   1.322       .  A
N70          C74   1.343       .  A
N71          C72   1.347       .  A
C72          C73   1.386       .  A
C72          H75   1.081       .  S
C73        C1116   1.475       .  S
C73          C74   1.380       .  A
C74          H76   1.083       .  S
C77          C78   1.531       .  S
C77          C83   1.527       .  S
C77          C81   1.539       .  S
C77        C1100   1.507       .  S
C78          H85   1.087       .  S
C78          C79   1.362       .  D
C79         C152   1.476       .  S
C79          C80   1.548       .  S
C80          C84   1.546       .  S
C80          C82   1.541       .  S
C80          H86   1.111       .  S
C81          H87   1.086       .  S
C81          C82   1.372       .  D
C82        C1080   1.485       .  S
C83          H88   1.087       .  S
C83          C84   1.360       .  D
C84        C1206   1.479       .  S
C89          C90   1.525       .  S
C89          C95   1.526       .  S
C89          C93   1.538       .  S
C89        C1064   1.507       .  S
C90          H97   1.087       .  S
C90          C91   1.361       .  D
C91         C151   1.475       .  S
C91          C92   1.553       .  S
C92          C96   1.546       .  S
C92          C94   1.548       .  S
C92          H98   1.111       .  S
C93          H99   1.085       .  S
C93          C94   1.374       .  D
C94        C1046   1.497       .  S
C95         H100   1.087       .  S
C95          C96   1.362       .  D
C96        C1152   1.479       .  S
N101        N102   1.320       .  A
N101        C105   1.348       .  A
N101       Cu109   2.084       .  S
N102        C103   1.340       .  A
N102       Cu108   2.044   1_565  S
C103        C104   1.376       .  A
C103        H106   1.082       .  S
C104       C1098   1.472       .  S
C104        C105   1.390       .  A
C105        H107   1.081       .  S
Cu108       N111   2.044       .  S
Cu109       N119   2.086   1_565  S
Cu110       N112   2.088       .  S
Cu110       N118   2.090       .  S
N111        N112   1.320       .  A
N111        C115   1.339       .  A
N112        C113   1.349       .  A
C113        C114   1.391       .  A
C113        H116   1.081       .  S
C114       C1062   1.474       .  S
C114        C115   1.376       .  A
C115        H117   1.082       .  S
N118        N119   1.325       .  A
N118        C122   1.346       .  A
N119        C120   1.347       .  A
C120        C121   1.386       .  A
C120        H123   1.081   1_545  S
C121       C1028   1.482       .  S
C121        C122   1.383       .  A
C122        H124   1.082       .  S
O125       Cu133   1.978       .  S
O125        C135   1.272   1_554  A
O126       Cu133   2.002       .  S
O126        C136   1.277   1_554  A
O127       Cu133   2.022   1_545  S
O127        C137   1.282       .  A
O128       Cu133   2.025   1_556  S
O128        C138   1.278       .  A
O129       Cu134   2.012   1_565  S
O129        C138   1.280       .  A
O130       Cu134   2.017   1_554  S
O130        C137   1.276       .  A
O131       Cu134   2.011       .  S
O131        C136   1.277   1_545  A
O132       Cu134   1.987       .  S
O132        C135   1.277   1_545  A
Cu133      Cu134   2.376   1_564  S
C135       C1008   1.453       .  S
C136        C990   1.474       .  S
C137        C172   1.482       .  S
C138        C160   1.481       .  S
O139       Cu147   1.996       .  S
O139        C149   1.277   1_565  A
O140       Cu147   1.979   1_545  S
O140        C150   1.276       .  A
O141       Cu147   1.995   1_544  S
O141        C151   1.278       .  A
O142       Cu147   2.009       .  S
O142        C152   1.275       .  A
O143       Cu148   2.015   1_565  S
O143        C152   1.281       .  A
O144       Cu148   2.023       .  S
O144        C151   1.277   1_556  A
O145       Cu148   1.986       .  S
O145        C150   1.274       .  A
O146       Cu148   2.009       .  S
O146        C149   1.277       .  A
Cu147      Cu148   2.373   1_565  S
C149        C974   1.472       .  S
C150       C1010   1.455       .  S
C153        C154   1.537       .  S
C153        C159   1.529       .  S
C153        C157   1.535       .  S
C153        C954   1.512       .  S
C154        H161   1.085       .  S
C154        C155   1.371       .  D
C155        C156   1.544       .  S
C155        C936   1.494       .  S
C156        C160   1.552       .  S
C156        C158   1.542       .  S
C156        H162   1.111       .  S
C157        H163   1.086       .  S
C157        C158   1.367       .  D
C158       C1082   1.485       .  S
C159        H164   1.087       .  S
C159        C160   1.364       .  D
C165        C166   1.533       .  S
C165        C171   1.527       .  S
C165        C169   1.534       .  S
C165        C918   1.515       .  S
C166        H173   1.086       .  S
C166        C167   1.372       .  D
C167        C168   1.551       .  S
C167        C902   1.497       .  S
C168        C172   1.557       .  S
C168        C170   1.549       .  S
C168        H174   1.109       .  S
C169        H175   1.087       .  S
C169        C170   1.366       .  D
C170       C1044   1.493       .  S
C171        H176   1.087       .  S
C171        C172   1.363       .  D
N177        N178   1.324       .  A
N177        C181   1.343       .  A
N177       Cu185   2.077       .  S
N178        C179   1.349       .  A
N178       Cu184   2.089   1_545  S
C179        C180   1.388       .  A
C179        H182   1.081       .  S
C180        C920   1.480       .  S
C180        C181   1.380       .  A
C181        H183   1.082       .  S
Cu184       N187   2.088       .  S
Cu185       N195   2.076   1_545  S
Cu186       N188   2.066       .  S
Cu186       N194   2.066       .  S
N187        N188   1.323       .  A
N187        C191   1.350       .  A
N188        C189   1.340       .  A
C189        C190   1.378       .  A
C189        H192   1.082       .  S
C190        C956   1.476       .  S
C190        C191   1.389       .  A
C191        H193   1.082       .  S
N194        N195   1.320       .  A
N194        C198   1.344       .  A
N195        C196   1.347   1_565  A
C196        C197   1.388   1_545  A
C196        H199   1.081       .  S
C197        C882   1.478       .  S
C197        C198   1.382       .  A
C198        H200   1.082       .  S
C201        C202   1.527       .  S
C201        C207   1.528       .  S
C201        C205   1.536       .  S
C201        C864   1.511       .  S
C202        H209   1.087       .  S
C202        C203   1.361       .  D
C203        C204   1.554       .  S
C204        C208   1.549       .  S
C204        C206   1.550       .  S
C204        H210   1.111       .  S
C205        H211   1.084       .  S
C205        C206   1.377       .  D
C206       C1190   1.500       .  S
C207        H212   1.087       .  S
C207        C208   1.362       .  D
C208        C938   1.483       .  S
C213        C214   1.528       .  S
C213        C219   1.530       .  S
C213        C217   1.536       .  S
C213        C848   1.511       .  S
C214        H221   1.087       .  S
C214        C215   1.361       .  D
C215        C216   1.555       .  S
C216        C220   1.550       .  S
C216        C218   1.543       .  S
C216        H222   1.111       .  S
C217        H223   1.085       .  S
C217        C218   1.373       .  D
C218       C1136   1.493       .  S
C219        H224   1.086       .  S
C219        C220   1.368       .  D
C220        C900   1.497       .  S
N225        N226   1.322       .  A
N225        C229   1.346       .  A
N225       Cu233   2.082       .  S
N226        C227   1.344       .  A
N226       Cu232   2.070       .  S
C227        C228   1.381       .  A
C227        H230   1.082       .  S
C228        C866   1.479       .  S
C228        C229   1.388       .  A
C229        H231   1.081       .  S
Cu232       N235   2.070       .  S
Cu233       N243   2.082       .  S
Cu234       N236   2.074       .  S
Cu234       N242   2.075       .  S
N235        N236   1.321       .  A
N235        C239   1.345       .  A
N236        C237   1.345       .  A
C237        C238   1.382       .  A
C237        H240   1.082       .  S
C238        C846   1.477       .  S
C238        C239   1.386       .  A
C239        H241   1.082       .  S
N242        N243   1.323       .  A
N242        C246   1.345       .  A
N243        C244   1.347       .  A
C244        C245   1.387       .  A
C244        H247   1.082       .  S
C245        C828   1.478       .  S
C245        C246   1.382       .  A
C246        H248   1.082       .  S
O249       Cu257   2.013       .  S
O249        C259   1.275       .  A
O250       Cu257   2.001       .  S
O250        C260   1.278       .  A
O251       Cu257   1.985       .  S
O251        C261   1.277       .  A
O252       Cu257   2.010       .  S
O252        C262   1.277       .  A
O253       Cu258   2.013       .  S
O253        C262   1.278       .  A
O254       Cu258   1.982       .  S
O254        C261   1.273       .  A
O255       Cu258   2.033       .  S
O255        C260   1.279       .  A
O256       Cu258   2.029       .  S
O256        C259   1.282       .  A
Cu257      Cu258   2.370       .  S
C259        C408   1.483       .  S
C260        C420   1.481       .  S
C261        C810   1.455       .  S
C262       C1118   1.476       .  S
O263       Cu271   2.031       .  S
O263        C273   1.283       .  A
O264       Cu271   2.030       .  S
O264        C274   1.276       .  A
O265       Cu271   1.979       .  S
O265        C275   1.273       .  A
O266       Cu271   2.007       .  S
O266        C276   1.277       .  A
O267       Cu272   2.020       .  S
O267        C276   1.279       .  A
O268       Cu272   1.985       .  S
O268        C275   1.276       .  A
O269       Cu272   2.010       .  S
O269        C274   1.282       .  A
O270       Cu272   2.015       .  S
O270        C273   1.275       .  A
Cu271      Cu272   2.374       .  S
C273        C291   1.485       .  S
C274        C279   1.483       .  S
C275        C812   1.453       .  S
C276        C830   1.476       .  S
C277        C278   1.522       .  S
C277        C283   1.528       .  S
C277        C281   1.536       .  S
C277        C792   1.507       .  S
C278        H285   1.087       .  S
C278        C279   1.359       .  D
C279        C280   1.558       .  S
C280        C284   1.552       .  S
C280        C282   1.551       .  S
C280        H286   1.110       .  S
C281        H287   1.086       .  S
C281        C282   1.374       .  D
C282        C756   1.493       .  S
C283        H288   1.087       .  S
C283        C284   1.363       .  D
C284        C774   1.487       .  S
C289        C290   1.525       .  S
C289        C295   1.529       .  S
C289        C293   1.530       .  S
C289        C738   1.511       .  S
C290        H297   1.087       .  S
C290        C291   1.363       .  D
C291        C292   1.563       .  S
C292        C296   1.554       .  S
C292        C294   1.552       .  S
C292        H298   1.109       .  S
C293        H299   1.087       .  S
C293        C294   1.366       .  D
C294        C702   1.495       .  S
C295        H300   1.085       .  S
C295        C296   1.372       .  D
C296        C720   1.499       .  S
N301        N302   1.322       .  A
N301        C305   1.342       .  A
N301       Cu309   2.065       .  S
N302        C303   1.347       .  A
N302       Cu308   2.081       .  S
C303        C304   1.385       .  A
C303        H306   1.082       .  S
C304        C740   1.480       .  S
C304        C305   1.385       .  A
C305        H307   1.081       .  S
Cu308       N311   2.081       .  S
Cu309       N319   2.064   1_554  S
Cu310       N312   2.063       .  S
Cu310       N318   2.063       .  S
N311        N312   1.323   1_554  A
N311        C315   1.345       .  A
N312        C313   1.343       .  A
C313        C314   1.379       .  A
C313        H316   1.082       .  S
C314       C1260   1.476       .  S
C314        C315   1.388   1_556  A
C315        H317   1.081       .  S
N318        N319   1.320       .  A
N318        C322   1.343       .  A
N319        C320   1.344       .  A
C320        C321   1.382       .  A
C320        H323   1.082       .  S
C321        C794   1.476       .  S
C321        C322   1.387       .  A
C322        H324   1.081       .  S
C325        C326   1.534       .  S
C325        C331   1.530       .  S
C325        C329   1.533       .  S
C325        C684   1.514       .  S
C326        H333   1.085       .  S
C326        C327   1.373       .  D
C327        C328   1.549       .  S
C327        C776   1.496       .  S
C328        C332   1.555       .  S
C328        C330   1.546       .  S
C328        H334   1.109       .  S
C329        H335   1.087       .  S
C329        C330   1.364       .  D
C330        C668   1.488       .  S
C331        H336   1.086       .  S
C331        C332   1.364       .  D
C332        C399   1.483       .  S
C337        C338   1.532       .  S
C337        C343   1.528       .  S
C337        C341   1.535       .  S
C337        C650   1.515       .  S
C338        H345   1.085       .  S
C338        C339   1.371       .  D
C339        C340   1.552       .  S
C339        C722   1.499       .  S
C340        C344   1.555       .  S
C340        C342   1.544       .  S
C340        H346   1.111       .  S
C341        H347   1.086       .  S
C341        C342   1.370       .  D
C342        C630   1.492       .  S
C343        H348   1.087       .  S
C343        C344   1.364       .  D
C344        C400   1.486       .  S
N349        N350   1.323       .  A
N349        C353   1.350       .  A
N349       Cu357   2.095   1_566  S
N350        C351   1.341       .  A
N350       Cu356   2.065       .  S
C351        C352   1.378       .  A
C351        H354   1.082       .  S
C352        C686   1.478       .  S
C352        C353   1.390       .  A
C353        H355   1.081       .  S
Cu356       N359   2.064   1_556  S
Cu357       N367   2.095       .  S
Cu358       N360   2.064       .  S
Cu358       N366   2.065       .  S
N359        N360   1.319   1_565  A
N359        C363   1.344       .  A
N360        C361   1.344       .  A
C361        C362   1.382   1_545  A
C361        H364   1.082       .  S
C362        C992   1.475       .  S
C362        C363   1.386       .  A
C363        H365   1.081   1_554  S
N366        N367   1.324       .  A
N366        C370   1.342       .  A
N367        C368   1.350       .  A
C368        C369   1.390       .  A
C368        H371   1.081       .  S
C369        C648   1.478       .  S
C369        C370   1.378       .  A
C370        H372   1.082       .  S
O373       Cu381   1.987       .  S
O373        C383   1.273       .  A
O374       Cu381   2.018       .  S
O374        C384   1.279   1_565  A
O375       Cu381   2.024       .  S
O375        C385   1.278       .  A
O376       Cu381   2.018   1_545  S
O376        C386   1.282       .  A
O377       Cu382   2.026       .  S
O377        C386   1.277       .  A
O378       Cu382   2.010   1_565  S
O378        C385   1.280       .  A
O379       Cu382   2.013       .  S
O379        C384   1.278       .  A
O380       Cu382   1.985       .  S
O380        C383   1.277   1_545  A
Cu381      Cu382   2.372   1_565  S
C383        C614   1.460       .  S
C384       C1026   1.480       .  S
C385        C451   1.482       .  S
C386        C463   1.487       .  S
O387       Cu395   2.015   1_565  S
O387        C397   1.279   1_565  A
O388       Cu395   1.990       .  S
O388        C398   1.277       .  A
O389       Cu395   2.015   1_565  S
O389        C399   1.276       .  A
O390       Cu395   2.017       .  S
O390        C400   1.281       .  A
O391       Cu396   2.032       .  S
O391        C400   1.278       .  A
O392       Cu396   2.028       .  S
O392        C399   1.282   1_545  A
O393       Cu396   1.982       .  S
O393        C398   1.273       .  A
O394       Cu396   2.008       .  S
O394        C397   1.277       .  A
Cu395      Cu396   2.372       .  S
C397        C884   1.475       .  S
C398        C612   1.458       .  S
C401        C402   1.532       .  S
C401        C407   1.532       .  S
C401        C405   1.539       .  S
C401        C594   1.512       .  S
C402        H409   1.087       .  S
C402        C403   1.361       .  D
C403        C404   1.546       .  S
C403        C576   1.483       .  S
C404        C408   1.553       .  S
C404        C406   1.545       .  S
C404        H410   1.111       .  S
C405        H411   1.086       .  S
C405        C406   1.371       .  D
C406        C758   1.490       .  S
C407        H412   1.086       .  S
C407        C408   1.363       .  D
C413        C414   1.531       .  S
C413        C419   1.527       .  S
C413        C417   1.542       .  S
C413        C558   1.518       .  S
C414        H421   1.085       .  S
C414        C415   1.371       .  D
C415        C416   1.547       .  S
C415        C542   1.493       .  S
C416        C420   1.553       .  S
C416        C418   1.545       .  S
C416        H422   1.111       .  S
C417        H423   1.084       .  S
C417        C418   1.374       .  D
C418        C704   1.501       .  S
C419        H424   1.087       .  S
C419        C420   1.362       .  D
N425        N426   1.322       .  A
N425        C429   1.345       .  A
N425       Cu433   2.075       .  S
N426        C427   1.345       .  A
N426       Cu432   2.075   1_556  S
C427        C428   1.383       .  A
C427        H430   1.082       .  S
C428        C596   1.481       .  S
C428        C429   1.388       .  A
C429        H431   1.081       .  S
Cu432       N435   2.075       .  S
Cu433       N443   2.075   1_556  S
Cu434       N436   2.089       .  S
Cu434       N442   2.089       .  S
N435        N436   1.322       .  A
N435        C439   1.345       .  A
N436        C437   1.348       .  A
C437        C438   1.387       .  A
C437        H440   1.082       .  S
C438        C560   1.486       .  S
C438        C439   1.387       .  A
C439        H441   1.081       .  S
N442        N443   1.323       .  A
N442        C446   1.347       .  A
N443        C444   1.346   1_554  A
C444        C445   1.382   1_556  A
C444        H447   1.082       .  S
C445       C1242   1.480       .  S
C445        C446   1.388       .  A
C446        H448   1.082       .  S
C449        C450   1.530       .  S
C449        C455   1.530       .  S
C449        C453   1.534       .  S
C449        C522   1.510       .  S
C450        H457   1.087       .  S
C450        C451   1.364       .  D
C451        C452   1.554       .  S
C452        C456   1.546       .  S
C452        C454   1.547       .  S
C452        H458   1.111       .  S
C453        H459   1.085       .  S
C453        C454   1.371       .  D
C454        C666   1.494       .  S
C455        H460   1.086       .  S
C455        C456   1.366       .  D
C456        C578   1.488       .  S
C461        C462   1.526       .  S
C461        C467   1.529       .  S
C461        C465   1.532       .  S
C461        C504   1.511       .  S
C462        H469   1.087       .  S
C462        C463   1.366       .  D
C463        C464   1.559       .  S
C464        C468   1.550       .  S
C464        C466   1.545       .  S
C464        H470   1.110       .  S
C465        H471   1.086       .  S
C465        C466   1.369       .  D
C466        C632   1.492       .  S
C467        H472   1.087       .  S
C467        C468   1.364       .  D
C468        C540   1.484       .  S
N473        N474   1.322       .  A
N473        C477   1.339       .  A
N473       Cu481   2.054   1_545  S
N474        C475   1.350       .  A
N474       Cu480   2.089   1_545  S
C475        C476   1.389       .  A
C475        H478   1.081       .  S
C476        C506   1.473       .  S
C476        C477   1.376       .  A
C477        H479   1.082       .  S
Cu480       N483   2.089   1_554  S
Cu481       N491   2.053       .  S
Cu482       N484   2.061       .  S
Cu482       N490   2.060       .  S
N483        N484   1.324       .  A
N483        C487   1.349       .  A
N484        C485   1.340       .  A
C485        C486   1.376       .  A
C485        H488   1.083       .  S
C486        C524   1.473       .  S
C486        C487   1.388       .  A
C487        H489   1.081       .  S
N490        N491   1.319   1_556  A
N490        C494   1.344       .  A
N491        C492   1.342       .  A
C492        C493   1.379       .  A
C492        H495   1.082       .  S
C493        C972   1.470       .  S
C493        C494   1.386   1_554  A
C494        H496   1.082       .  S
C497        C505   1.487       .  S
C497        C498   1.403       .  A
C497        C502   1.409       .  A
C498        C499   1.400       .  A
C498        H507   1.083       .  S
C499        C500   1.407       .  A
C499        H508   1.082       .  S
C500        C503   1.482       .  S
C500        C501   1.401       .  A
C501        C502   1.396       .  A
C501        H509   1.084       .  S
C502        H510   1.081       .  S
C503        H511   1.087       .  S
C503        C504   1.344       .  D
C504        H512   1.085       .  S
C505        H513   1.086       .  S
C505        C506   1.343       .  D
C506        H514   1.085       .  S
C515        C523   1.487       .  S
C515        C516   1.403       .  A
C515        C520   1.408       .  A
C516        C517   1.400       .  A
C516        H525   1.083       .  S
C517        C518   1.409       .  A
C517        H526   1.081       .  S
C518        C521   1.485       .  S
C518        C519   1.401       .  A
C519        C520   1.395       .  A
C519        H527   1.083       .  S
C520        H528   1.081       .  S
C521        H529   1.088       .  S
C521        C522   1.344       .  D
C522        H530   1.084       .  S
C523        H531   1.086       .  S
C523        C524   1.344       .  D
C524        H532   1.085       .  S
C533        C541   1.491       .  S
C533        C534   1.403       .  A
C533        C538   1.409       .  A
C534        C535   1.399       .  A
C534        H543   1.083       .  S
C535        C536   1.409       .  A
C535        H544   1.081       .  S
C536        C539   1.498       .  S
C536        C537   1.407       .  A
C537        C538   1.406       .  A
C537        H545   1.084       .  S
C538        H546   1.082       .  S
C539        H547   1.087       .  S
C539        C540   1.348       .  D
C540        H548   1.085       .  S
C541        H549   1.087       .  S
C541        C542   1.349       .  D
C542        H550   1.085       .  S
C551        C559   1.496       .  S
C551        C552   1.405       .  A
C551        C556   1.409       .  A
C552        C553   1.399       .  A
C552        H561   1.083       .  S
C553        C554   1.408       .  A
C553        H562   1.079       .  S
C554        C557   1.497       .  S
C554        C555   1.407       .  A
C555        C556   1.402       .  A
C555        H563   1.083       .  S
C556        H564   1.080       .  S
C557        H565   1.087       .  S
C557        C558   1.351       .  D
C558        H566   1.082       .  S
C559        H567   1.085       .  S
C559        C560   1.350       .  D
C560        H568   1.083       .  S
C569        C577   1.486       .  S
C569        C570   1.403       .  A
C569        C574   1.407       .  A
C570        C571   1.398       .  A
C570        H579   1.084       .  S
C571        C572   1.402       .  A
C571        H580   1.084       .  S
C572        C575   1.492       .  S
C572        C573   1.411       .  A
C573        C574   1.406       .  A
C573        H581   1.082       .  S
C574        H582   1.083       .  S
C575        H583   1.088       .  S
C575        C576   1.344       .  D
C576        H584   1.086       .  S
C577        H585   1.088       .  S
C577        C578   1.348       .  D
C578        H586   1.085       .  S
C587        C595   1.488       .  S
C587        C588   1.402       .  A
C587        C592   1.409       .  A
C588        C589   1.395       .  A
C588        H597   1.084       .  S
C589        C590   1.409       .  A
C589        H598   1.081       .  S
C590        C593   1.491       .  S
C590        C591   1.404       .  A
C591        C592   1.402       .  A
C591        H599   1.083       .  S
C592        H600   1.081       .  S
C593        H601   1.087       .  S
C593        C594   1.346       .  D
C594        H602   1.084       .  S
C595        H603   1.086       .  S
C595        C596   1.345       .  D
C596        H604   1.084       .  S
C605        C613   1.463       .  S
C605        C606   1.395   1_565  A
C605        C610   1.404       .  A
C606        C607   1.387       .  A
C606        H615   1.084       .  S
C607        C608   1.408   1_445  A
C607        H616   1.079   1_455  S
C608        C611   1.474   1_565  S
C608        C609   1.402   1_655  A
C609        C610   1.393       .  A
C609        H617   1.084   1_455  S
C610        H618   1.083       .  S
C611        H619   1.088   1_545  S
C611        C612   1.340       .  D
C612        H620   1.084       .  S
C613        H621   1.088   1_565  S
C613        C614   1.337       .  D
C614        H622   1.086       .  S
C623        C631   1.488       .  S
C623        C624   1.402       .  A
C623        C628   1.410       .  A
C624        C625   1.393       .  A
C624        H633   1.084       .  S
C625        C626   1.401   1_455  A
C625        H634   1.083   1_455  S
C626        C629   1.488       .  S
C626        C627   1.410   1_655  A
C627        C628   1.409       .  A
C627        H635   1.082   1_455  S
C628        H636   1.082       .  S
C629        H637   1.087       .  S
C629        C630   1.347       .  D
C630        H638   1.085       .  S
C631        H639   1.087       .  S
C631        C632   1.349       .  D
C632        H640   1.085       .  S
C641        C649   1.488       .  S
C641        C642   1.402       .  A
C641        C646   1.408       .  A
C642        C643   1.398       .  A
C642        H651   1.084       .  S
C643        C644   1.409       .  A
C643        H652   1.081       .  S
C644        C647   1.491       .  S
C644        C645   1.404       .  A
C645        C646   1.401       .  A
C645        H653   1.083       .  S
C646        H654   1.081       .  S
C647        H655   1.086       .  S
C647        C648   1.346       .  D
C648        H656   1.084       .  S
C649        H657   1.087       .  S
C649        C650   1.346       .  D
C650        H658   1.085       .  S
C659        C667   1.493       .  S
C659        C660   1.405   1_655  A
C659        C664   1.407   1_655  A
C660        C661   1.405       .  A
C660        H669   1.083   1_455  S
C661        C662   1.410       .  A
C661        H670   1.081       .  S
C662        C665   1.491       .  S
C662        C663   1.404       .  A
C663        C664   1.397       .  A
C663        H671   1.084       .  S
C664        H672   1.082   1_455  S
C665        H673   1.086       .  S
C665        C666   1.350       .  D
C666        H674   1.084       .  S
C667        H675   1.085       .  S
C667        C668   1.347       .  D
C668        H676   1.087       .  S
C677        C685   1.492       .  S
C677        C678   1.403       .  A
C677        C682   1.410       .  A
C678        C679   1.400       .  A
C678        H687   1.083       .  S
C679        C680   1.409       .  A
C679        H688   1.081       .  S
C680        C683   1.490       .  S
C680        C681   1.402       .  A
C681        C682   1.399       .  A
C681        H689   1.083       .  S
C682        H690   1.081       .  S
C683        H691   1.087       .  S
C683        C684   1.345       .  D
C684        H692   1.085       .  S
C685        H693   1.086       .  S
C685        C686   1.345       .  D
C686        H694   1.084       .  S
C695        C703   1.500       .  S
C695        C696   1.404       .  A
C695        C700   1.412       .  A
C696        C697   1.397   1_455  A
C696        H705   1.083       .  S
C697        C698   1.408       .  A
C697        H706   1.081       .  S
C698        C701   1.503       .  S
C698        C699   1.408   1_655  A
C699        C700   1.411       .  A
C699        H707   1.083   1_455  S
C700        H708   1.081       .  S
C701        H709   1.085       .  S
C701        C702   1.350       .  D
C702        H710   1.085       .  S
C703        H711   1.085       .  S
C703        C704   1.352       .  D
C704        H712   1.084       .  S
C713        C721   1.495       .  S
C713        C714   1.403       .  A
C713        C718   1.411       .  A
C714        C715   1.397       .  A
C714        H723   1.084       .  S
C715        C716   1.404       .  A
C715        H724   1.083       .  S
C716        C719   1.497       .  S
C716        C717   1.411       .  A
C717        C718   1.411       .  A
C717        H725   1.082       .  S
C718        H726   1.082       .  S
C719        H727   1.087       .  S
C719        C720   1.352       .  D
C720        H728   1.085       .  S
C721        H729   1.086       .  S
C721        C722   1.351       .  D
C722        H730   1.085       .  S
C731        C739   1.489       .  S
C731        C732   1.404       .  A
C731        C736   1.409       .  A
C732        C733   1.397       .  A
C732        H741   1.083       .  S
C733        C734   1.408       .  A
C733        H742   1.081       .  S
C734        C737   1.488       .  S
C734        C735   1.403       .  A
C735        C736   1.399       .  A
C735        H743   1.083       .  S
C736        H744   1.080       .  S
C737        H745   1.087       .  S
C737        C738   1.345       .  D
C738        H746   1.084       .  S
C739        H747   1.085       .  S
C739        C740   1.348       .  D
C740        H748   1.083       .  S
C749        C757   1.490       .  S
C749        C750   1.406       .  A
C749        C754   1.405       .  A
C750        C751   1.405   1_455  A
C750        H759   1.083       .  S
C751        C752   1.407       .  A
C751        H760   1.082       .  S
C752        C755   1.492       .  S
C752        C753   1.406   1_655  A
C753        C754   1.403       .  A
C753        H761   1.084   1_455  S
C754        H762   1.083       .  S
C755        H763   1.087       .  S
C755        C756   1.350       .  D
C756        H764   1.086       .  S
C757        H765   1.087       .  S
C757        C758   1.348       .  D
C758        H766   1.086       .  S
C767        C775   1.495       .  S
C767        C768   1.403       .  A
C767        C772   1.408       .  A
C768        C769   1.401       .  A
C768        H777   1.084       .  S
C769        C770   1.412       .  A
C769        H778   1.079       .  S
C770        C773   1.506       .  S
C770        C771   1.408       .  A
C771        C772   1.406       .  A
C771        H779   1.083       .  S
C772        H780   1.082       .  S
C773        H781   1.087       .  S
C773        C774   1.349       .  D
C774        H782   1.081       .  S
C775        H783   1.086       .  S
C775        C776   1.351       .  D
C776        H784   1.085       .  S
C785        C793   1.484       .  S
C785        C786   1.401       .  A
C785        C790   1.410       .  A
C786        C787   1.392       .  A
C786        H795   1.084       .  S
C787        C788   1.407       .  A
C787        H796   1.083       .  S
C788        C791   1.482       .  S
C788        C789   1.401       .  A
C789        C790   1.401       .  A
C789        H797   1.083       .  S
C790        H798   1.081       .  S
C791        H799   1.087       .  S
C791        C792   1.342       .  D
C792        H800   1.087       .  S
C793        H801   1.085       .  S
C793        C794   1.344       .  D
C794        H802   1.084       .  S
C803        C811   1.467       .  S
C803        C804   1.398   1_655  A
C803        C808   1.406   1_655  A
C804        C805   1.391       .  A
C804        H813   1.083   1_455  S
C805        C806   1.406       .  A
C805        H814   1.082       .  S
C806        C809   1.466       .  S
C806        C807   1.398       .  A
C807        C808   1.389       .  A
C807        H815   1.083       .  S
C808        H816   1.082   1_455  S
C809        H817   1.088       .  S
C809        C810   1.339       .  D
C810        H818   1.085       .  S
C811        H819   1.088       .  S
C811        C812   1.339       .  D
C812        H820   1.085       .  S
C821        C829   1.484       .  S
C821        C822   1.402       .  A
C821        C826   1.407       .  A
C822        C823   1.400       .  A
C822        H831   1.083       .  S
C823        C824   1.407       .  A
C823        H832   1.082       .  S
C824        C827   1.484       .  S
C824        C825   1.402       .  A
C825        C826   1.399       .  A
C825        H833   1.084       .  S
C826        H834   1.083       .  S
C827        H835   1.086       .  S
C827        C828   1.345       .  D
C828        H836   1.086       .  S
C829        H837   1.087       .  S
C829        C830   1.344       .  D
C830        H838   1.087       .  S
C839        C847   1.484       .  S
C839        C840   1.402       .  A
C839        C844   1.407       .  A
C840        C841   1.397       .  A
C840        H849   1.084       .  S
C841        C842   1.407       .  A
C841        H850   1.081       .  S
C842        C845   1.486       .  S
C842        C843   1.404       .  A
C843        C844   1.399       .  A
C843        H851   1.083       .  S
C844        H852   1.082       .  S
C845        H853   1.086       .  S
C845        C846   1.346       .  D
C846        H854   1.085       .  S
C847        H855   1.087       .  S
C847        C848   1.346       .  D
C848        H856   1.085       .  S
C857        C865   1.486       .  S
C857        C858   1.401       .  A
C857        C862   1.409       .  A
C858        C859   1.395       .  A
C858        H867   1.084       .  S
C859        C860   1.408       .  A
C859        H868   1.082       .  S
C860        C863   1.487       .  S
C860        C861   1.403       .  A
C861        C862   1.402       .  A
C861        H869   1.083       .  S
C862        H870   1.082       .  S
C863        H871   1.087       .  S
C863        C864   1.344       .  D
C864        H872   1.086       .  S
C865        H873   1.086       .  S
C865        C866   1.344       .  D
C866        H874   1.085       .  S
C875        C883   1.484       .  S
C875        C876   1.403       .  A
C875        C880   1.406   1_565  A
C876        C877   1.400       .  A
C876        H885   1.084       .  S
C877        C878   1.408       .  A
C877        H886   1.082       .  S
C878        C881   1.486   1_565  S
C878        C879   1.403   1_565  A
C879        C880   1.398       .  A
C879        H887   1.083       .  S
C880        H888   1.082       .  S
C881        H889   1.086       .  S
C881        C882   1.344   1_545  D
C882        H890   1.086       .  S
C883        H891   1.087       .  S
C883        C884   1.345   1_565  D
C884        H892   1.086       .  S
C893        C901   1.495       .  S
C893        C894   1.404       .  A
C893        C898   1.410       .  A
C894        C895   1.398       .  A
C894        H903   1.083       .  S
C895        C896   1.403       .  A
C895        H904   1.084       .  S
C896        C899   1.494       .  S
C896        C897   1.410       .  A
C897        C898   1.410       .  A
C897        H905   1.082       .  S
C898        H906   1.082       .  S
C899        H907   1.087       .  S
C899        C900   1.351       .  D
C900        H908   1.085       .  S
C901        H909   1.086       .  S
C901        C902   1.351       .  D
C902        H910   1.085       .  S
C911        C919   1.492       .  S
C911        C912   1.404       .  A
C911        C916   1.410       .  A
C912        C913   1.399       .  A
C912        H921   1.084       .  S
C913        C914   1.409       .  A
C913        H922   1.081       .  S
C914        C917   1.491       .  S
C914        C915   1.403       .  A
C915        C916   1.400       .  A
C915        H923   1.083       .  S
C916        H924   1.080       .  S
C917        H925   1.087       .  S
C917        C918   1.347       .  D
C918        H926   1.084       .  S
C919        H927   1.086       .  S
C919        C920   1.346       .  D
C920        H928   1.084       .  S
C929        C937   1.500       .  S
C929        C930   1.406       .  A
C929        C934   1.411       .  A
C930        C931   1.404       .  A
C930        H939   1.083       .  S
C931        C932   1.408       .  A
C931        H940   1.082       .  S
C932        C935   1.494       .  S
C932        C933   1.404       .  A
C933        C934   1.402       .  A
C933        H941   1.084       .  S
C934        H942   1.080       .  S
C935        H943   1.086       .  S
C935        C936   1.350       .  D
C936        H944   1.085       .  S
C937        H945   1.087       .  S
C937        C938   1.348       .  D
C938        H946   1.083       .  S
C947        C955   1.491       .  S
C947        C948   1.404       .  A
C947        C952   1.409       .  A
C948        C949   1.401       .  A
C948        H957   1.083       .  S
C949        C950   1.409       .  A
C949        H958   1.082       .  S
C950        C953   1.486       .  S
C950        C951   1.401       .  A
C951        C952   1.396       .  A
C951        H959   1.083       .  S
C952        H960   1.081       .  S
C953        H961   1.087       .  S
C953        C954   1.344       .  D
C954        H962   1.085       .  S
C955        H963   1.086       .  S
C955        C956   1.345       .  D
C956        H964   1.084       .  S
C965        C973   1.481       .  S
C965        C966   1.403   1_556  A
C965        C970   1.407       .  A
C966        C967   1.395       .  A
C966        H975   1.083       .  S
C967        C968   1.405   1_554  A
C967        H976   1.083       .  S
C968        C971   1.478       .  S
C968        C969   1.401       .  A
C969        C970   1.396       .  A
C969        H977   1.083       .  S
C970        H978   1.081       .  S
C971        H979   1.086       .  S
C971        C972   1.342   1_556  D
C972        H980   1.085       .  S
C973        H981   1.087   1_556  S
C973        C974   1.345   1_565  D
C974        H982   1.084       .  S
C983        C991   1.482       .  S
C983        C984   1.402   1_554  A
C983        C988   1.407       .  A
C984        C985   1.396       .  A
C984        H993   1.084       .  S
C985        C986   1.406   1_556  A
C985        H994   1.082       .  S
C986        C989   1.482       .  S
C986        C987   1.403       .  A
C987        C988   1.398       .  A
C987        H995   1.083       .  S
C988        H996   1.082       .  S
C989        H997   1.087       .  S
C989        C990   1.346   1_554  D
C990        H998   1.085   1_565  S
C991        H999   1.086   1_554  S
C991        C992   1.344       .  D
C992       H1000   1.085   1_565  S
C1001      C1009   1.464   1_554  S
C1001      C1002   1.397   1_545  A
C1001      C1006   1.404   1_554  A
C1002      C1003   1.390       .  A
C1002      H1011   1.084       .  S
C1003      C1004   1.408   1_564  A
C1003      H1012   1.081       .  S
C1004      C1007   1.469       .  S
C1004      C1005   1.399       .  A
C1005      C1006   1.389       .  A
C1005      H1013   1.083       .  S
C1006      H1014   1.082       .  S
C1007      H1015   1.088       .  S
C1007      C1008   1.338   1_545  D
C1008      H1016   1.084   1_556  S
C1009      H1017   1.088   1_556  S
C1009      C1010   1.339       .  D
C1010      H1018   1.086       .  S
C1019      C1027   1.491       .  S
C1019      C1020   1.404   1_565  A
C1019      C1024   1.408       .  A
C1020      C1021   1.400   1_545  A
C1020      H1029   1.084       .  S
C1021      C1022   1.408       .  A
C1021      H1030   1.081   1_565  S
C1022      C1025   1.490       .  S
C1022      C1023   1.404       .  A
C1023      C1024   1.400       .  A
C1023      H1031   1.083       .  S
C1024      H1032   1.081       .  S
C1025      H1033   1.087       .  S
C1025      C1026   1.347   1_565  D
C1026      H1034   1.085       .  S
C1027      H1035   1.086       .  S
C1027      C1028   1.348   1_565  D
C1028      H1036   1.084       .  S
C1037      C1045   1.496       .  S
C1037      C1038   1.405       .  A
C1037      C1042   1.409       .  A
C1038      C1039   1.399       .  A
C1038      H1047   1.083       .  S
C1039      C1040   1.408       .  A
C1039      H1048   1.082       .  S
C1040      C1043   1.498       .  S
C1040      C1041   1.406       .  A
C1041      C1042   1.407       .  A
C1041      H1049   1.083       .  S
C1042      H1050   1.081       .  S
C1043      H1051   1.084       .  S
C1043      C1044   1.349       .  D
C1044      H1052   1.085       .  S
C1045      H1053   1.085       .  S
C1045      C1046   1.351       .  D
C1046      H1054   1.084       .  S
C1055      C1063   1.481       .  S
C1055      C1056   1.401       .  A
C1055      C1060   1.407       .  A
C1056      C1057   1.398       .  A
C1056      H1065   1.084       .  S
C1057      C1058   1.410       .  A
C1057      H1066   1.081       .  S
C1058      C1061   1.484       .  S
C1058      C1059   1.401       .  A
C1059      C1060   1.396       .  A
C1059      H1067   1.084       .  S
C1060      H1068   1.082       .  S
C1061      H1069   1.086       .  S
C1061      C1062   1.341       .  D
C1062      H1070   1.085       .  S
C1063      H1071   1.087       .  S
C1063      C1064   1.344       .  D
C1064      H1072   1.086       .  S
C1073      C1081   1.484       .  S
C1073      C1074   1.404       .  A
C1073      C1078   1.406       .  A
C1074      C1075   1.402       .  A
C1074      H1083   1.083       .  S
C1075      C1076   1.406       .  A
C1075      H1084   1.083       .  S
C1076      C1079   1.484       .  S
C1076      C1077   1.402       .  A
C1077      C1078   1.400       .  A
C1077      H1085   1.084       .  S
C1078      H1086   1.082       .  S
C1079      H1087   1.087       .  S
C1079      C1080   1.344       .  D
C1080      H1088   1.086       .  S
C1081      H1089   1.087       .  S
C1081      C1082   1.346       .  D
C1082      H1090   1.086       .  S
C1091      C1099   1.484       .  S
C1091      C1092   1.402       .  A
C1091      C1096   1.409       .  A
C1092      C1093   1.397       .  A
C1092      H1101   1.083       .  S
C1093      C1094   1.408       .  A
C1093      H1102   1.082       .  S
C1094      C1097   1.483       .  S
C1094      C1095   1.400       .  A
C1095      C1096   1.396       .  A
C1095      H1103   1.083       .  S
C1096      H1104   1.081       .  S
C1097      H1105   1.086       .  S
C1097      C1098   1.341       .  D
C1098      H1106   1.085       .  S
C1099      H1107   1.087       .  S
C1099      C1100   1.343       .  D
C1100      H1108   1.085       .  S
C1109      C1117   1.483       .  S
C1109      C1110   1.402       .  A
C1109      C1114   1.407       .  A
C1110      C1111   1.398       .  A
C1110      H1119   1.084       .  S
C1111      C1112   1.406       .  A
C1111      H1120   1.083       .  S
C1112      C1115   1.482       .  S
C1112      C1113   1.402       .  A
C1113      C1114   1.399       .  A
C1113      H1121   1.084       .  S
C1114      H1122   1.082       .  S
C1115      H1123   1.087       .  S
C1115      C1116   1.343       .  D
C1116      H1124   1.087       .  S
C1117      H1125   1.087       .  S
C1117      C1118   1.345       .  D
C1118      H1126   1.086       .  S
C1127      C1135   1.491       .  S
C1127      C1128   1.402       .  A
C1127      C1132   1.410       .  A
C1128      C1129   1.394       .  A
C1128      H1137   1.084       .  S
C1129      C1130   1.403       .  A
C1129      H1138   1.084       .  S
C1130      C1133   1.490       .  S
C1130      C1131   1.410       .  A
C1131      C1132   1.407       .  A
C1131      H1139   1.081       .  S
C1132      H1140   1.081       .  S
C1133      H1141   1.086       .  S
C1133      C1134   1.349       .  D
C1134      H1142   1.084       .  S
C1135      H1143   1.085       .  S
C1135      C1136   1.349       .  D
C1136      H1144   1.084       .  S
C1145      C1153   1.489       .  S
C1145      C1146   1.404       .  A
C1145      C1150   1.406       .  A
C1146      C1147   1.403       .  A
C1146      H1155   1.083       .  S
C1147      C1148   1.405       .  A
C1147      H1156   1.083       .  S
C1148      C1151   1.493       .  S
C1148      C1149   1.409   1_554  A
C1149      C1150   1.399   1_556  A
C1149      H1157   1.082       .  S
C1150      H1158   1.082   1_554  S
C1151      H1159   1.087       .  S
C1151      C1152   1.346       .  D
C1152      H1160   1.085       .  S
C1153      H1161   1.087       .  S
C1153      C1154   1.347       .  D
C1154      H1162   1.086       .  S
C1163      C1171   1.491       .  S
C1163      C1164   1.404       .  A
C1163      C1168   1.409       .  A
C1164      C1165   1.399       .  A
C1164      H1173   1.083       .  S
C1165      C1166   1.408       .  A
C1165      H1174   1.081       .  S
C1166      C1169   1.490       .  S
C1166      C1167   1.403       .  A
C1167      C1168   1.399       .  A
C1167      H1175   1.083       .  S
C1168      H1176   1.080       .  S
C1169      H1177   1.087       .  S
C1169      C1170   1.346       .  D
C1170      H1178   1.084       .  S
C1171      H1179   1.086       .  S
C1171      C1172   1.346       .  D
C1172      H1180   1.084       .  S
C1181      C1189   1.499       .  S
C1181      C1182   1.405       .  A
C1181      C1186   1.411       .  A
C1182      C1183   1.397       .  A
C1182      H1191   1.084       .  S
C1183      C1184   1.403       .  A
C1183      H1192   1.084       .  S
C1184      C1187   1.497       .  S
C1184      C1185   1.411       .  A
C1185      C1186   1.408       .  A
C1185      H1193   1.081       .  S
C1186      H1194   1.080       .  S
C1187      H1195   1.084       .  S
C1187      C1188   1.351       .  D
C1188      H1196   1.084       .  S
C1189      H1197   1.084       .  S
C1189      C1190   1.353       .  D
C1190      H1198   1.083       .  S
C1199      C1207   1.490       .  S
C1199      C1200   1.403       .  A
C1199      C1204   1.407       .  A
C1200      C1201   1.400       .  A
C1200      H1209   1.084       .  S
C1201      C1202   1.411       .  A
C1201      H1210   1.080       .  S
C1202      C1205   1.499       .  S
C1202      C1203   1.407       .  A
C1203      C1204   1.403       .  A
C1203      H1211   1.083       .  S
C1204      H1212   1.082       .  S
C1205      H1213   1.088       .  S
C1205      C1206   1.347       .  D
C1206      H1214   1.082       .  S
C1207      H1215   1.087       .  S
C1207      C1208   1.349       .  D
C1208      H1216   1.085       .  S
C1217      C1225   1.487       .  S
C1217      C1218   1.403       .  A
C1217      C1222   1.406       .  A
C1218      C1219   1.400       .  A
C1218      H1227   1.083       .  S
C1219      C1220   1.410       .  A
C1219      H1228   1.080       .  S
C1220      C1223   1.491       .  S
C1220      C1221   1.405       .  A
C1221      C1222   1.398       .  A
C1221      H1229   1.083       .  S
C1222      H1230   1.082       .  S
C1223      H1231   1.088       .  S
C1223      C1224   1.348       .  D
C1224      H1232   1.083       .  S
C1225      H1233   1.086       .  S
C1225      C1226   1.345       .  D
C1226      H1234   1.086       .  S
C1235      C1243   1.484       .  S
C1235      C1236   1.403       .  A
C1235      C1240   1.406       .  A
C1236      C1237   1.403       .  A
C1236      H1245   1.083       .  S
C1237      C1238   1.409       .  A
C1237      H1246   1.082       .  S
C1238      C1241   1.484       .  S
C1238      C1239   1.401       .  A
C1239      C1240   1.396       .  A
C1239      H1247   1.084       .  S
C1240      H1248   1.083       .  S
C1241      H1249   1.086       .  S
C1241      C1242   1.344       .  D
C1242      H1250   1.086   1_554  S
C1243      H1251   1.086       .  S
C1243      C1244   1.343   1_554  D
C1244      H1252   1.087       .  S
C1253      C1261   1.482       .  S
C1253      C1254   1.402       .  A
C1253      C1258   1.406   1_556  A
C1254      C1255   1.400       .  A
C1254      H1263   1.083       .  S
C1255      C1256   1.410       .  A
C1255      H1264   1.081       .  S
C1256      C1259   1.484       .  S
C1256      C1257   1.402   1_556  A
C1257      C1258   1.394       .  A
C1257      H1265   1.084       .  S
C1258      H1266   1.083       .  S
C1259      H1267   1.085   1_556  S
C1259      C1260   1.343       .  D
C1260      H1268   1.084       .  S
C1261      H1269   1.086       .  S
C1261      C1262   1.342       .  D
C1262      H1270   1.086   1_556  S
C1271      C1279   1.468       .  S
C1271      C1272   1.396       .  A
C1271      C1276   1.408   1_554  A
C1272      C1273   1.389       .  A
C1272      H1281   1.084       .  S
C1273      C1274   1.406   1_554  A
C1273      H1282   1.083       .  S
C1274      C1277   1.469       .  S
C1274      C1275   1.397       .  A
C1275      C1276   1.394       .  A
C1275      H1283   1.083       .  S
C1276      H1284   1.082       .  S
C1277      H1285   1.087       .  S
C1277      C1278   1.339       .  D
C1278      H1286   1.086   1_556  S
C1279      H1287   1.088       .  S
C1279      C1280   1.338   1_554  D
C1280      H1288   1.086       .  S
