geometry optimzed in LAMMPS
_audit_creation_date              2020-12-01 
_audit_creation_method            'lammps2cif' 
_symmetry_space_group_name_H-M    'P1' 
_symmetry_Int_Tables_number       1 
_symmetry_cell_setting            triclinic 
loop_ 
_symmetry_equiv_pos_as_xyz 
  x,y,z 
_cell_length_a                    39.83202807 
_cell_length_b                    39.35112511092234 
_cell_length_c                    50.995693179595946 
_cell_angle_alpha                 89.90857059591426 
_cell_angle_beta                  90.24289965566702 
_cell_angle_gamma                 91.46400195501377 
loop_ 
_atom_site_label 
_atom_site_type_symbol 
_atom_site_fract_x 
_atom_site_fract_y 
_atom_site_fract_z 
_atom_site_charge 
C1          C  0.51590991  0.52684012  0.24050677     0.86900
C2          C  0.52362704  0.50177127  0.21854797    -0.53300
C3          C  0.52301054  0.46849493  0.22583444     0.09800
C4          C  0.51615739  0.46305405  0.25531315     0.20800
C5          C  0.48221402  0.51368820  0.25202110    -0.54100
C6          C  0.48228000  0.48017127  0.26005802     0.09900
C7          C  0.54210423  0.51905180  0.26177094    -0.53600
C8          C  0.54212501  0.48597935  0.26978372     0.10500
H9          H  0.52879780  0.50956057  0.19852230     0.15000
H10         H  0.51675037  0.43598234  0.26132357     0.00800
H11         H  0.46071919  0.52983544  0.25394327     0.15300
H12         H  0.55889674  0.53797386  0.27042568     0.15100
C13         C  0.93405673  0.08096407  0.26165962     0.86900
C14         C  0.90567952  0.07417484  0.28124715    -0.53300
C15         C  0.87547071  0.06550648  0.27008002     0.09800
C16         C  0.87618965  0.06465107  0.23959075     0.20800
C17         C  0.93457892  0.04839341  0.24476728    -0.54100
C18         C  0.90430473  0.03963513  0.23312276     0.09900
C19         C  0.92023259  0.10819349  0.24314832    -0.53600
C20         C  0.89075299  0.09965178  0.23083075     0.10500
H21         H  0.90872296  0.07655552  0.30231236     0.15000
H22         H  0.85144709  0.05801611  0.23062304     0.00800
H23         H  0.95703794  0.03370819  0.24225771     0.15300
H24         H  0.93448907  0.13104770  0.23783469     0.15100
C25         C  0.96796360  0.47691857  0.26488088     0.86900
C26         C  0.95709237  0.45419775  0.24175331    -0.53300
C27         C  0.92512531  0.45885242  0.23287500     0.09800
C28         C  0.90666755  0.48665727  0.24801408     0.20800
C29         C  0.96211918  0.51366285  0.25491743    -0.54100
C30         C  0.92996788  0.51870378  0.24559808     0.09900
C31         C  0.94093061  0.47099413  0.28559265    -0.53600
C32         C  0.90891141  0.47621357  0.27728977     0.10500
H33         H  0.97378286  0.43611732  0.23291219     0.15000
H34         H  0.88054551  0.49047329  0.24114723     0.00800
H35         H  0.98172323  0.53330406  0.25436313     0.15300
H36         H  0.94685277  0.46324015  0.30551278     0.15100
C37         C  0.05386837  0.77602505  0.95958459     0.86900
C38         C  0.05363574  0.81148258  0.94667877    -0.53300
C39         C  0.07680727  0.81603186  0.92711389     0.09800
C40         C  0.09839401  0.78486097  0.92250333     0.20800
C41         C  0.04998070  0.75120626  0.93662005    -0.54100
C42         C  0.07306793  0.75582747  0.91717023     0.09900
C43         C  0.09086517  0.77211999  0.96892399    -0.53600
C44         C  0.11438090  0.77681110  0.94933355     0.10500
H45         H  0.03565273  0.83063215  0.95178624     0.15000
H46         H  0.11603845  0.78864721  0.90605612     0.00800
H47         H  0.02998230  0.73194898  0.93564268     0.15300
H48         H  0.09774600  0.76625609  0.98899759     0.15100
C49         C  0.42056648  0.76639979  0.96132080     0.86900
C50         C  0.42234246  0.73385296  0.94467007    -0.53300
C51         C  0.40257239  0.73386746  0.92260660     0.09800
C52         C  0.38241684  0.76647509  0.91965250     0.20800
C53         C  0.42851916  0.79543128  0.94218134    -0.54100
C54         C  0.40887046  0.79562220  0.92023941     0.09900
C55         C  0.38267877  0.76974767  0.96740386    -0.53600
C56         C  0.36244017  0.76967989  0.94545031     0.10500
H57         H  0.43866802  0.71312310  0.94965707     0.15000
H58         H  0.36644144  0.76643053  0.90199119     0.00800
H59         H  0.44878966  0.81385193  0.94569720     0.15300
H60         H  0.37290055  0.77170219  0.98713008     0.15100
In61       In  0.64229694  0.78288426  0.13685744     1.36900
C62         C  0.71129026  0.77717854  0.13020057     0.78000
O63         O  0.64400500  0.84077744  0.14329943    -0.60400
O64         O  0.61293041  0.81057728  0.16790810    -0.51400
C65         C  0.60217932  0.78490594  0.09383088     0.70700
O66         O  0.62906435  0.76857217  0.09443849    -0.46200
C67         C  0.61663044  0.72829619  0.16249022     0.75400
O68         O  0.69044748  0.77732174  0.11152511    -0.58100
O69         O  0.61321189  0.73252640  0.13821216    -0.48200
O70         O  0.69722168  0.78087245  0.15209373    -0.54500
C71         C  0.62261807  0.84014194  0.16166067     0.85600
O72         O  0.59711256  0.80168780  0.11435462    -0.56400
O73         O  0.63587802  0.75001309  0.17321077    -0.59700
In74       In  0.81785318  0.76970229  0.12192087     1.36900
C75         C  0.74877294  0.77334321  0.12695700     0.78000
O76         O  0.84251126  0.74390024  0.15683739    -0.60400
O77         O  0.81697305  0.71236866  0.12934287    -0.51400
C78         C  0.85881542  0.76061513  0.07943876     0.70700
O79         O  0.86709913  0.75588045  0.10291210    -0.46200
C80         C  0.83904122  0.83287866  0.13629168     0.75400
O81         O  0.76939650  0.77690246  0.14564525    -0.58100
O82         O  0.82189311  0.82737722  0.11583830    -0.48200
O83         O  0.76311580  0.76653778  0.10553829    -0.54500
C84         C  0.83506296  0.71389498  0.14982733     0.85600
O85         O  0.82855695  0.76923588  0.07697724    -0.56400
O86         O  0.84527859  0.80637638  0.14906517    -0.59700
C87         C  0.50910064  0.03902876  0.23710834     0.86900
C88         C  0.52951779  0.04952943  0.26140667    -0.53300
C89         C  0.52251500  0.08072967  0.27121288     0.09800
C90         C  0.49545583  0.09932165  0.25553057     0.20800
C91         C  0.47181113  0.04262740  0.24545759    -0.54100
C92         C  0.46462873  0.07448521  0.25515526     0.09900
C93         C  0.51472113  0.06825005  0.21750502    -0.53600
C94         C  0.50811172  0.09959633  0.22701037     0.10500
H95         H  0.54896325  0.03384209  0.26972166     0.15000
H96         H  0.49034798  0.12513563  0.26305836     0.00800
H97         H  0.45312807  0.02216616  0.24393765     0.15300
H98         H  0.52320661  0.06455125  0.19751289     0.15100
In99       In  0.22619007  0.35800889  0.37226062     1.36900
C100        C  0.21822370  0.28829557  0.37373041     0.78000
O101        O  0.18096147  0.35151470  0.34487322    -0.60400
O102        O  0.19007192  0.39997687  0.36126273    -0.51400
C103        C  0.23197059  0.39252019  0.41800329     0.70700
O104        O  0.20449419  0.38741634  0.40615195    -0.46200
C105        C  0.28086206  0.38143504  0.34572965     0.75400
O106        O  0.23176980  0.30490007  0.35527780    -0.58100
O107        O  0.25137406  0.39050763  0.34111019    -0.48200
O108        O  0.20903377  0.30714143  0.39235338    -0.54500
C109        C  0.17146149  0.38176292  0.34671586     0.85600
O110        O  0.25588693  0.37623443  0.40845370    -0.56400
O111        O  0.28268668  0.35896635  0.36327154    -0.59700
In112      In  0.20734822  0.18015095  0.36779600     1.36900
C113        C  0.21363987  0.25021107  0.37259241     0.78000
O114        O  0.23130018  0.15451212  0.33211219    -0.60400
O115        O  0.26288281  0.17778044  0.36077702    -0.51400
C116        C  0.21702731  0.13844073  0.40969518     0.70700
O117        O  0.23039174  0.13415849  0.38766865    -0.46200
C118        C  0.14527193  0.16064782  0.34891299     0.75400
O119        O  0.20280309  0.23134919  0.39090601    -0.58100
O120        O  0.16639048  0.17778441  0.33573819    -0.48200
O121        O  0.22056480  0.23354611  0.35242848    -0.54500
C122        C  0.26110226  0.16143453  0.33947880     0.85600
O123        O  0.20006221  0.16513777  0.41093488    -0.56400
O124        O  0.15549140  0.15410065  0.37162606    -0.59700
C125        C  0.23294358  0.95295478  0.54178592     0.86900
C126        C  0.20510239  0.95688231  0.56245494    -0.53300
C127        C  0.20782264  0.93652939  0.58404969     0.09800
C128        C  0.23746697  0.91227785  0.58232485     0.20800
C129        C  0.26561902  0.95747419  0.55774079    -0.54100
C130        C  0.26789176  0.93649004  0.57908826     0.09900
C131        C  0.23134559  0.91474762  0.53469198    -0.53600
C132        C  0.23390392  0.89307871  0.55586392     0.10500
H133        H  0.18618440  0.97581921  0.56123558     0.15000
H134        H  0.23933692  0.89570780  0.59974337     0.00800
H135        H  0.28416374  0.97745234  0.55359099     0.15300
H136        H  0.22915478  0.90584744  0.51461557     0.15100
C137        C  0.23979745  0.58134836  0.54618667     0.86900
C138        C  0.26897796  0.57608280  0.56562633    -0.53300
C139        C  0.26830526  0.59677819  0.58689366     0.09800
C140        C  0.23905900  0.62109487  0.58720778     0.20800
C141        C  0.20833781  0.57684848  0.56347209    -0.54100
C142        C  0.20791345  0.59748512  0.58499476     0.09900
C143        C  0.24134578  0.61996438  0.53950220    -0.53600
C144        C  0.24119413  0.64098549  0.56116076     0.10500
H145        H  0.28759157  0.55663540  0.56400914     0.15000
H146        H  0.23921284  0.63705035  0.60507349     0.00800
H147        H  0.18879907  0.55775359  0.55961807     0.15300
H148        H  0.24284202  0.62951208  0.51956195     0.15100
In149      In  0.72266748  0.87161667  0.63853163     1.36900
C150        C  0.72130033  0.80184682  0.63366426     0.78000
O151        O  0.75603646  0.88416208  0.67328993    -0.60400
O152        O  0.77957475  0.87051792  0.63778230    -0.51400
C153        C  0.71748650  0.91638643  0.59742113     0.70700
O154        O  0.73798614  0.92029361  0.61608148    -0.46200
C155        C  0.67125969  0.89376754  0.66792991     0.75400
O156        O  0.72198976  0.82160975  0.61407578    -0.58100
O157        O  0.70045732  0.90654376  0.66887265    -0.48200
O158        O  0.72077084  0.81761734  0.65515771    -0.54500
C159        C  0.78322977  0.87979206  0.66137722     0.85600
O160        O  0.70067534  0.88882117  0.59895986    -0.56400
O161        O  0.66823356  0.86900187  0.65233358    -0.59700
In162      In  0.72251857  0.69371936  0.63326266     1.36900
C163        C  0.72161688  0.76361450  0.63239918     0.78000
O164        O  0.67512985  0.70005573  0.65750484    -0.60400
O165        O  0.68758047  0.65045265  0.64652609    -0.51400
C166        C  0.72581232  0.65548512  0.58916725     0.70700
O167        O  0.75046534  0.66244035  0.60383702    -0.46200
C168        C  0.77885615  0.67572099  0.65843531     0.75400
O169        O  0.71799315  0.74585299  0.61178336    -0.58100
O170        O  0.75005571  0.66578038  0.66582631    -0.48200
O171        O  0.72569489  0.74580251  0.65265846    -0.54500
C172        C  0.66738310  0.66887205  0.65846048     0.85600
O173        O  0.69983402  0.67183687  0.59483406    -0.56400
O174        O  0.77849464  0.69644772  0.63957429    -0.59700
C175        C  0.70185097  0.09537975  0.45948428     0.86900
C176        C  0.66739396  0.09635734  0.44527504    -0.53300
C177        C  0.66757793  0.11598495  0.42301683     0.09800
C178        C  0.70186276  0.13357406  0.41750327     0.20800
C179        C  0.72654740  0.08435102  0.43795419    -0.54100
C180        C  0.72646429  0.10397999  0.41570002     0.09900
C181        C  0.71091013  0.13329165  0.46468177    -0.53600
C182        C  0.71078700  0.15340364  0.44272556     0.10500
H183        H  0.64568521  0.08100691  0.45120983     0.15000
H184        H  0.70149510  0.15025712  0.39996296     0.00800
H185        H  0.74161733  0.06192047  0.43999249     0.15300
H186        H  0.71609975  0.14361136  0.48403700     0.15100
C187        C  0.71527670  0.46560701  0.46016044     0.86900
C188        C  0.74747790  0.47014943  0.44363855    -0.53300
C189        C  0.74987095  0.44801862  0.42299656     0.09800
C190        C  0.71999516  0.42256127  0.42118881     0.20800
C191        C  0.68668326  0.46719355  0.43972832    -0.54100
C192        C  0.68922069  0.44500658  0.41951970     0.09900
C193        C  0.71502118  0.42776218  0.46878797    -0.53600
C194        C  0.71764113  0.40506358  0.44829768     0.10500
H195        H  0.76577941  0.49055484  0.44718867     0.15000
H196        H  0.72136333  0.40448698  0.40458936     0.00800
H197        H  0.66727359  0.48600918  0.43968356     0.15300
H198        H  0.71280446  0.41977177  0.48909927     0.15100
C199        C  0.42529778  0.01669509  0.76923371     0.86900
C200        C  0.42532981  0.98667564  0.78825859    -0.53300
C201        C  0.42883554  0.95595888  0.77688601     0.09800
C202        C  0.43300735  0.95748130  0.74719158     0.20800
C203        C  0.45959475  0.01374023  0.75483350    -0.54100
C204        C  0.46370698  0.98198313  0.74341042     0.09900
C205        C  0.39894931  0.00746022  0.74836962    -0.53600
C206        C  0.40289654  0.97683569  0.73667047     0.10500
H207        H  0.42280492  0.98946726  0.80936019     0.15000
H208        H  0.43519669  0.93189806  0.73842967     0.00800
H209        H  0.47874913  0.03382895  0.75453960     0.15300
H210        H  0.37878145  0.02430384  0.74311349     0.15100
C211        C  0.99547613  0.96525423  0.73884054     0.86900
C212        C  0.00645697  0.94006265  0.75968545    -0.53300
C213        C  0.03709029  0.94701610  0.77069635     0.09800
C214        C  0.05549221  0.97787759  0.75811787     0.20800
C215        C  0.99945772  0.00066215  0.75208653    -0.54100
C216        C  0.03117348  0.00734188  0.76215194     0.09900
C217        C  0.02338393  0.96547204  0.71833777    -0.53600
C218        C  0.05470468  0.97202786  0.72816380     0.10500
H219        H  0.98955194  0.92015188  0.76702631     0.15000
H220        H  0.08121819  0.98265571  0.76593662     0.00800
H221        H  0.97919371  0.01848387  0.75341715     0.15300
H222        H  0.01885159  0.96239332  0.69747344     0.15100
C223        C  0.98544854  0.58385690  0.73369155     0.86900
C224        C  0.01534657  0.58715226  0.71498512    -0.53300
C225        C  0.04588102  0.58616549  0.72702471     0.09800
C226        C  0.04413139  0.58135799  0.75700432     0.20800
C227        C  0.99128141  0.55011452  0.74829044    -0.54100
C228        C  0.02219429  0.54865159  0.76047836     0.09900
C229        C  0.99167256  0.61135999  0.75424307    -0.53600
C230        C  0.02198411  0.61028458  0.76674988     0.10500
H231        H  0.01273928  0.58976079  0.69386728     0.15000
H232        H  0.06912635  0.58028053  0.76664678     0.00800
H233        H  0.97315078  0.52904977  0.74833903     0.15300
H234        H  0.97299242  0.63016347  0.75856560     0.15100
C235        C  0.52131019  0.28096897  0.03677670     0.86900
C236        C  0.51878699  0.24923499  0.05458261    -0.53300
C237        C  0.53812325  0.25075275  0.07667339     0.09800
C238        C  0.56006376  0.28328495  0.07829229     0.20800
C239        C  0.51480306  0.31091479  0.05531519    -0.54100
C240        C  0.53480521  0.31205565  0.07716170     0.09900
C241        C  0.55932614  0.28440708  0.03034660    -0.53600
C242        C  0.57987483  0.28582246  0.05223129     0.10500
H243        H  0.50231944  0.22753085  0.05088946     0.15000
H244        H  0.57619214  0.28407922  0.09593100     0.00800
H245        H  0.49504749  0.32890284  0.05180026     0.15300
H246        H  0.56882272  0.28628507  0.01047495     0.15100
C247        C  0.88859665  0.28357569  0.04175410     0.86900
C248        C  0.89381465  0.31486820  0.05963641    -0.53300
C249        C  0.87176695  0.31630927  0.08003875     0.09800
C250        C  0.84589824  0.28667639  0.08047809     0.20800
C251        C  0.88946815  0.25306123  0.06072033    -0.54100
C252        C  0.86722170  0.25445906  0.08116430     0.09900
C253        C  0.85135041  0.28505262  0.03295301    -0.53600
C254        C  0.82871278  0.28695734  0.05316162     0.10500
H255        H  0.91504641  0.33256714  0.05780897     0.15000
H256        H  0.82850829  0.28834626  0.09725793     0.00800
H257        H  0.90672936  0.23247323  0.05813178     0.15300
H258        H  0.84363187  0.28519839  0.01253529     0.15100
In259      In  0.29192337  0.27212630  0.86701061     1.36900
C260        C  0.22303608  0.27471941  0.86945524     0.78000
O261        O  0.30167186  0.29867461  0.82852139    -0.60400
O262        O  0.30776016  0.32672407  0.86398091    -0.51400
C263        C  0.33217372  0.27596267  0.90973162     0.70700
O264        O  0.33025800  0.29929294  0.89295662    -0.46200
C265        C  0.32253364  0.21895255  0.84504762     0.75400
O266        O  0.24185061  0.27867709  0.88920777    -0.58100
O267        O  0.32762826  0.24928093  0.83832700    -0.48200
O268        O  0.23913240  0.26867014  0.84889566    -0.54500
C269        C  0.31149812  0.32597625  0.83940020     0.85600
O270        O  0.31152007  0.25149675  0.90592330    -0.56400
O271        O  0.30025515  0.21504795  0.86243955    -0.59700
In272      In  0.11721296  0.28266225  0.86925017     1.36900
C273        C  0.18561737  0.27745203  0.86986780     0.78000
O274        O  0.11641308  0.22535304  0.86301011    -0.60400
O275        O  0.09191876  0.25580093  0.83495032    -0.51400
C276        C  0.07309297  0.27914392  0.91036526     0.70700
O277        O  0.10427526  0.28444825  0.91335657    -0.46200
C278        C  0.10624085  0.34523967  0.84909456     0.75400
O279        O  0.16821588  0.27825341  0.89050940    -0.58100
O280        O  0.12027757  0.34112721  0.87103226    -0.48200
O281        O  0.16824064  0.27941725  0.84923831    -0.54500
C282        C  0.09951135  0.22625517  0.84198302     0.85600
O283        O  0.06481153  0.27497597  0.88674703    -0.56400
O284        O  0.09880569  0.31779973  0.83763113    -0.59700
C285        C  0.47257269  0.56280609  0.74775985     0.86900
C286        C  0.46028118  0.58447360  0.77072367    -0.53300
C287        C  0.42858644  0.57619070  0.77890312     0.09800
C288        C  0.41197170  0.54639671  0.76378902     0.20800
C289        C  0.46892264  0.52582631  0.75781008    -0.54100
C290        C  0.43700426  0.51742612  0.76606054     0.09900
C291        C  0.44541032  0.56582787  0.72670234    -0.53600
C292        C  0.41387673  0.55717878  0.73498675     0.10500
H293        H  0.47508148  0.60498790  0.77961230     0.15000
H294        H  0.38615573  0.53963736  0.77053842     0.00800
H295        H  0.48937891  0.50813993  0.75844651     0.15300
H296        H  0.45065060  0.57449179  0.70684996     0.15100
C297        C  0.40436722  0.44180598  0.80590338     0.16400
C298        C  0.39192693  0.42151462  0.82639681    -0.32700
C299        C  0.36759072  0.39644533  0.82024543     0.20800
C300        C  0.35690666  0.39073128  0.79468282     0.03000
C301        C  0.36948235  0.41099315  0.77406708    -0.22400
C302        C  0.39304607  0.43696646  0.78038279     0.12100
S303        S  0.43123219  0.47590771  0.80996963    -0.06100
C304        C  0.42677113  0.48422455  0.77707990    -0.09500
C305        C  0.40576903  0.46147492  0.76372655    -0.26100
S306        S  0.32760904  0.35831386  0.79156163    -0.03300
C307        C  0.32904140  0.35354511  0.82515902    -0.16800
C308        C  0.35149581  0.37545764  0.83776407    -0.14800
H309        H  0.40003048  0.42584606  0.84644008     0.20600
H310        H  0.36061199  0.40731839  0.75414668     0.16600
H311        H  0.39866203  0.46398725  0.74330575     0.19100
H312        H  0.35644185  0.37541643  0.85867047     0.12500
C313        C  0.94743890  0.27349326  0.98007956     0.16400
C314        C  0.96126227  0.26808947  0.95505030    -0.32700
C315        C  0.99616747  0.27339702  0.95178654     0.20800
C316        C  0.01651926  0.28339498  0.97261800     0.03000
C317        C  0.00273670  0.28833459  0.99777481    -0.22400
C318        C  0.96774529  0.28315616  0.00099831     0.12100
S319        S  0.90554703  0.26968931  0.98780644    -0.06100
C320        C  0.91498559  0.28131488  0.01979667    -0.09500
C321        C  0.94946174  0.28709409  0.02379085    -0.26100
S322        S  0.05810922  0.28940806  0.96427600    -0.03300
C323        C  0.04812131  0.27846441  0.93228515    -0.16800
C324        C  0.01407782  0.27047183  0.92874540    -0.14800
H325        H  0.94537288  0.26052394  0.93868793     0.20600
H326        H  0.01856062  0.29626587  0.01407691     0.16600
H327        H  0.96059047  0.29424972  0.04244813     0.19100
H328        H  0.00285763  0.26332551  0.91011368     0.12500
C329        C  0.45732138  0.29591600  0.97875918     0.16400
C330        C  0.43767053  0.30909925  0.95816682    -0.32700
C331        C  0.40698759  0.29203800  0.95191962     0.20800
C332        C  0.39638972  0.26333368  0.96564468     0.03000
C333        C  0.41585688  0.25043572  0.98617211    -0.22400
C334        C  0.44647551  0.26723393  0.99223373     0.12100
S335        S  0.49484854  0.31283160  0.99036265    -0.06100
C336        C  0.49613734  0.28070266  0.01367555    -0.09500
C337        C  0.46822551  0.25845278  0.01189009    -0.26100
S338        S  0.35933313  0.24531948  0.95464876    -0.03300
C339        C  0.35778187  0.27654991  0.93102195    -0.16800
C340        C  0.38473170  0.29990860  0.93210613    -0.14800
H341        H  0.44593818  0.33154900  0.94746165     0.20600
H342        H  0.40758236  0.22799507  0.99689808     0.16600
H343        H  0.46235580  0.23763215  0.02498844     0.19100
H344        H  0.38848649  0.32077922  0.91847771     0.12500
C345        C  0.73315643  0.28810505  0.03435644     0.16400
C346        C  0.70109728  0.28456246  0.02243035    -0.32700
C347        C  0.67246095  0.28964496  0.03812307     0.20800
C348        C  0.67599062  0.29856490  0.06426576     0.03000
C349        C  0.70782053  0.30259973  0.07597609    -0.22400
C350        C  0.73621118  0.29678584  0.06055551     0.12100
S351        S  0.77109133  0.28115355  0.01955795    -0.06100
C352        C  0.79130934  0.28937992  0.04917066    -0.09500
C353        C  0.76910813  0.29769979  0.06906426    -0.26100
S354        S  0.63895646  0.30205049  0.08053296    -0.03300
C355        C  0.61754562  0.29069711  0.05217965    -0.16800
C356        C  0.63890583  0.28538309  0.03094228    -0.14800
H357        H  0.69858290  0.27726849  0.00204385     0.20600
H358        H  0.71031197  0.30904814  0.09654184     0.16600
H359        H  0.77628556  0.30398091  0.08897118     0.19100
H360        H  0.63051678  0.27764289  0.01159276     0.12500
C361        C  0.08662329  0.43713003  0.82666233     0.16400
C362        C  0.08149482  0.47236690  0.82387908    -0.32700
C363        C  0.06297235  0.48340096  0.80187407     0.20800
C364        C  0.05025114  0.46029461  0.78365553     0.03000
C365        C  0.05598438  0.42547750  0.78614920    -0.22400
C366        C  0.07426399  0.41450440  0.80797715     0.12100
S367        S  0.10666331  0.41763768  0.85240660    -0.06100
C368        C  0.09814692  0.37879760  0.83759496    -0.09500
C369        C  0.08099054  0.38138216  0.81399290    -0.26100
S370        S  0.02717421  0.47782434  0.75905370    -0.03300
C371        C  0.03476094  0.51712649  0.77294328    -0.16800
C372        C  0.05454093  0.51632146  0.79557290    -0.14800
H373        H  0.09100810  0.49026304  0.83838222     0.20600
H374        H  0.04602211  0.40752513  0.77185534     0.16600
H375        H  0.07301165  0.35989062  0.80205513     0.19100
H376        H  0.06188004  0.53851429  0.80695928     0.12500
C377        C  0.06096339  0.15273401  0.80037256     0.16400
C378        C  0.04072443  0.13155736  0.78418254    -0.32700
C379        C  0.04636522  0.09635446  0.78467085     0.20800
C380        C  0.07151959  0.08311250  0.80019360     0.03000
C381        C  0.09170273  0.10420993  0.81628938    -0.22400
C382        C  0.08562274  0.13918894  0.81623222     0.12100
S383        S  0.05743063  0.19586886  0.80353145    -0.06100
C384        C  0.08878418  0.19545192  0.82706357    -0.09500
C385        C  0.10159969  0.16348451  0.83155335    -0.26100
S386        S  0.07512297  0.04012576  0.79773015    -0.03300
C387        C  0.04218808  0.03943245  0.77560259    -0.16800
C388        C  0.02918371  0.07135041  0.77066614    -0.14800
H389        H  0.02118357  0.14201057  0.77200238     0.20600
H390        H  0.11108873  0.09371324  0.82860372     0.16600
H391        H  0.12119239  0.15818231  0.84565161     0.19100
H392        H  0.00892113  0.07615300  0.75705166     0.12500
C393        C  0.37897841  0.08534584  0.80843057     0.16400
C394        C  0.35497651  0.10154634  0.82354436    -0.32700
C395        C  0.35636980  0.13694462  0.82456362     0.20800
C396        C  0.38081171  0.15554861  0.81110103     0.03000
C397        C  0.40551191  0.13911036  0.79621848    -0.22400
C398        C  0.40405990  0.10326713  0.79514936     0.12100
S399        S  0.37873453  0.04302217  0.80361250    -0.06100
C400        C  0.41386313  0.04804434  0.78393849    -0.09500
C401        C  0.42454711  0.08187292  0.78096017    -0.26100
S402        S  0.37670671  0.19856920  0.81406293    -0.03300
C403        C  0.34188526  0.19106803  0.83362783    -0.16800
C404        C  0.33425324  0.15700746  0.83766612    -0.14800
H405        H  0.33545656  0.08707023  0.83363259     0.20600
H406        H  0.42450168  0.15360979  0.78559121     0.16600
H407        H  0.44498434  0.09038378  0.76845917     0.19100
H408        H  0.31331959  0.14740075  0.84922677     0.12500
C409        C  0.72947279  0.25056085  0.43507477     0.16400
C410        C  0.74051286  0.28330020  0.42710238    -0.32700
C411        C  0.72734407  0.31165800  0.44004229     0.20800
C412        C  0.70429141  0.30761035  0.46013212     0.03000
C413        C  0.69329597  0.27485400  0.46813821    -0.22400
C414        C  0.70652789  0.24647626  0.45525368     0.12100
S415        S  0.74147614  0.21295658  0.42128816    -0.06100
C416        C  0.71582946  0.19126817  0.44322424    -0.09500
C417        C  0.69884531  0.21258323  0.46014054    -0.26100
S418        S  0.69117063  0.34533532  0.47311196    -0.03300
C419        C  0.71678179  0.36703876  0.45112617    -0.16800
C420        C  0.73443855  0.34553136  0.43474269    -0.14800
H421        H  0.75839325  0.28654553  0.41130611     0.20600
H422        H  0.67510285  0.27162203  0.48371387     0.16600
H423        H  0.68109661  0.20373474  0.47481603     0.19100
H424        H  0.75156322  0.35424088  0.41957985     0.12500
C425        C  0.55619801  0.58354864  0.71078979     0.16400
C426        C  0.58503473  0.58356758  0.69492428    -0.32700
C427        C  0.60055392  0.61517804  0.68883595     0.20800
C428        C  0.58778153  0.64535730  0.69799546     0.03000
C429        C  0.55882528  0.64532283  0.71352308    -0.22400
C430        C  0.54353571  0.61381770  0.71972708     0.12100
S431        S  0.53304397  0.54822926  0.72019646    -0.06100
C432        C  0.50646981  0.57452065  0.73699478    -0.09500
C433        C  0.51500449  0.60887482  0.73425931    -0.26100
S434        S  0.61036060  0.68098582  0.68890327    -0.03300
C435        C  0.63749159  0.65515150  0.67248908    -0.16800
C436        C  0.62906138  0.62067108  0.67407353    -0.14800
H437        H  0.59497240  0.56002074  0.68769654     0.20600
H438        H  0.54870583  0.66887867  0.72058680     0.16600
H439        H  0.50037718  0.62948868  0.74178670     0.19100
H440        H  0.64322138  0.60067860  0.66509991     0.12500
C441        C  0.86784987  0.64937295  0.67799148     0.16400
C442        C  0.90261961  0.64558158  0.67977479    -0.32700
C443        C  0.91463771  0.62064746  0.69679434     0.20800
C444        C  0.89317561  0.60018348  0.71154974     0.03000
C445        C  0.85808689  0.60393401  0.70975637    -0.22400
C446        C  0.84594940  0.62910000  0.69262301     0.12100
S447        S  0.84884552  0.67820423  0.65822026    -0.06100
C448        C  0.81063032  0.66320902  0.66960136    -0.09500
C449        C  0.81286805  0.63699274  0.68789053    -0.26100
S450        S  0.91373726  0.57295815  0.73220438    -0.03300
C451        C  0.95165738  0.58889600  0.72029494    -0.16800
C452        C  0.94770772  0.61457340  0.70182098    -0.14800
H453        H  0.91967748  0.66163002  0.66847040     0.20600
H454        H  0.84107351  0.58825911  0.72138074     0.16600
H455        H  0.79150056  0.62401832  0.69680839     0.19100
H456        H  0.96816066  0.62954569  0.69341411     0.12500
C457        C  0.73960304  0.57682913  0.54481285     0.16400
C458        C  0.75115942  0.54657562  0.53338453    -0.32700
C459        C  0.73069765  0.53011879  0.51435481     0.20800
C460        C  0.70016312  0.54345439  0.50724077     0.03000
C461        C  0.68851434  0.57348023  0.51875359    -0.22400
C462        C  0.70888342  0.58989356  0.53772450     0.12100
S463        S  0.76042325  0.60037005  0.56831433    -0.06100
C464        C  0.72735870  0.62808816  0.56895006    -0.09500
C465        C  0.70163146  0.61914383  0.55151548    -0.26100
S466        S  0.67965691  0.52099489  0.48320020    -0.03300
C467        C  0.71258437  0.49293430  0.48183640    -0.16800
C468        C  0.73780364  0.50101311  0.50015871    -0.14800
H469        H  0.77515980  0.53643111  0.53899887     0.20600
H470        H  0.66460275  0.58372736  0.51301238     0.16600
H471        H  0.67851235  0.63280217  0.54946825     0.19100
H472        H  0.76087608  0.48726051  0.50210441     0.12500
C473        C  0.87473394  0.89724196  0.68305528     0.16400
C474        C  0.90954365  0.90340346  0.68356953    -0.32700
C475        C  0.92290523  0.92353121  0.70397778     0.20800
C476        C  0.90284568  0.93595515  0.72366352     0.03000
C477        C  0.86802899  0.92878770  0.72368908    -0.22400
C478        C  0.85441530  0.90962224  0.70267762     0.12100
S479        S  0.85340396  0.87735756  0.65800665    -0.06100
C480        C  0.81648940  0.88622388  0.67373857    -0.09500
C481        C  0.82091136  0.90288794  0.69761659    -0.26100
S482        S  0.92439356  0.96035245  0.74632203    -0.03300
C483        C  0.96071816  0.95498018  0.72844873    -0.16800
C484        C  0.95584880  0.93378535  0.70680080    -0.14800
H485        H  0.92538050  0.89417055  0.66805441     0.20600
H486        H  0.85209967  0.93880493  0.73883279     0.16600
H487        H  0.80062005  0.91131391  0.70987588     0.19100
H488        H  0.97544564  0.92527063  0.69395716     0.12500
C489        C  0.53507984  0.93367567  0.70959289     0.16400
C490        C  0.55364339  0.90949259  0.69615411    -0.32700
C491        C  0.58855963  0.91422041  0.69517733     0.20800
C492        C  0.60448622  0.94161755  0.70746917     0.03000
C493        C  0.58581807  0.96559970  0.72149649    -0.22400
C494        C  0.55055435  0.96113479  0.72209937     0.12100
S495        S  0.49258320  0.93239712  0.71196723    -0.06100
C496        C  0.49471178  0.96910568  0.73054698    -0.09500
C497        C  0.52747038  0.98172894  0.73420381    -0.26100
S498        S  0.64703267  0.94362707  0.70235334    -0.03300
C499        C  0.64301250  0.90753566  0.68313697    -0.16800
C500        C  0.61043363  0.89449668  0.68147405    -0.14800
H501        H  0.54124674  0.88822608  0.68633479     0.20600
H502        H  0.59815269  0.98713999  0.73098414     0.16600
H503        H  0.53413665  0.00404103  0.74566264     0.19100
H504        H  0.60289809  0.87247484  0.66995654     0.12500
C505        C  0.69913412  0.97355297  0.53665621     0.16400
C506        C  0.68917019  0.98671269  0.51216095    -0.32700
C507        C  0.69747465  0.02093358  0.50628685     0.20800
C508        C  0.71442284  0.04141222  0.52426696     0.03000
C509        C  0.72463676  0.02819485  0.54877699    -0.22400
C510        C  0.71687593  0.99367983  0.55445142     0.12100
S511        S  0.69153632  0.93261415  0.54727436    -0.06100
C512        C  0.71316181  0.94199212  0.57589676    -0.09500
C513        C  0.72520064  0.97567729  0.57689941    -0.26100
S514        S  0.72207282  0.08218530  0.51314951    -0.03300
C515        C  0.70273685  0.07163330  0.48358431    -0.16800
C516        C  0.69105938  0.03786598  0.48304468    -0.14800
H517        H  0.67575365  0.97078584  0.49812192     0.20600
H518        H  0.73836492  0.04403460  0.56269738     0.16600
H519        H  0.73908493  0.98652043  0.59329678     0.19100
H520        H  0.67891052  0.02608266  0.46621541     0.12500
C521        C  0.34370974  0.55298519  0.68400133     0.16400
C522        C  0.32122959  0.54298229  0.66401186    -0.32700
C523        C  0.31311164  0.56748928  0.64507275     0.20800
C524        C  0.32603278  0.60053940  0.64641086     0.03000
C525        C  0.34817070  0.61045463  0.66633147    -0.22400
C526        C  0.35684174  0.58596572  0.68478692     0.12100
S527        S  0.35975845  0.52677194  0.70753922    -0.06100
C528        C  0.38481814  0.56065123  0.71761420    -0.09500
C529        C  0.38015300  0.59048784  0.70406413    -0.26100
S530        S  0.31303553  0.62687131  0.62211401    -0.03300
C531        C  0.29055509  0.59292956  0.60954897    -0.16800
C532        C  0.29271894  0.56288342  0.62363105    -0.14800
H533        H  0.31128991  0.51715403  0.66285004     0.20600
H534        H  0.35883500  0.63603407  0.66707235     0.16600
H535        H  0.39469829  0.61379082  0.70716974     0.19100
H536        H  0.27948567  0.53934141  0.61873371     0.12500
C537        C  0.14386370  0.57297742  0.63857380     0.16400
C538        C  0.12076684  0.55624258  0.65503565    -0.32700
C539        C  0.10869602  0.57427186  0.67654448     0.20800
C540        C  0.11928477  0.60745788  0.68166279     0.03000
C541        C  0.14263750  0.62415729  0.66524378    -0.22400
C542        C  0.15455324  0.60614036  0.64355808     0.12100
S543        S  0.16081731  0.55558288  0.61122543    -0.06100
C544        C  0.18283528  0.59333326  0.60628125    -0.09500
C545        C  0.17694187  0.61798526  0.62508844    -0.26100
S546        S  0.09955009  0.62561337  0.70768705    -0.03300
C547        C  0.07684952  0.58814140  0.71148804    -0.16800
C548        C  0.08440706  0.56308383  0.69360766    -0.14800
H549        H  0.11208839  0.53047395  0.65097018     0.20600
H550        H  0.15065247  0.65022689  0.66890500     0.16600
H551        H  0.18828584  0.64326619  0.62531879     0.19100
H552        H  0.07124106  0.53872133  0.69218374     0.12500
C553        C  0.35050763  0.93817950  0.67975387     0.16400
C554        C  0.33324019  0.91766755  0.66127409    -0.32700
C555        C  0.31933305  0.93393458  0.63927476     0.20800
C556        C  0.32264035  0.96883336  0.63594172     0.03000
C557        C  0.33905381  0.98918785  0.65456650    -0.22400
C558        C  0.35274887  0.97311547  0.67639509     0.12100
S559        S  0.37101764  0.92405003  0.70719558    -0.06100
C560        C  0.38194253  0.96583205  0.71409107    -0.09500
C561        C  0.37029018  0.98899172  0.69600105    -0.26100
S562        S  0.30480001  0.98414176  0.60816225    -0.03300
C563        C  0.29184014  0.94324539  0.60079753    -0.16800
C564        C  0.30130927  0.91902307  0.61912947    -0.14800
H565        H  0.33103141  0.89037458  0.66377710     0.20600
H566        H  0.34131170  0.01648443  0.65203477     0.16600
H567        H  0.37532293  0.01615590  0.69665833     0.19100
H568        H  0.29489157  0.89216035  0.61802108     0.12500
C569        C  0.16688213  0.94514366  0.65276171     0.16400
C570        C  0.15592541  0.94109350  0.67879967    -0.32700
C571        C  0.12889913  0.96069074  0.68711173     0.20800
C572        C  0.11443411  0.98415146  0.67046878     0.06200
C573        C  0.12606952  0.98891207  0.64483009    -0.22400
C574        C  0.15203806  0.96837204  0.63626040     0.12100
S575        S  0.19683470  0.92154067  0.63784516    -0.06100
C576        C  0.18871732  0.94259871  0.60878484    -0.09500
C577        C  0.16432675  0.96712896  0.61125857    -0.26100
S578        S  0.07934384  0.00217530  0.68255690    -0.03300
C579        C  0.08336811  0.97721353  0.71015115    -0.16800
C580        C  0.11140770  0.95703106  0.71024693    -0.14800
H581        H  0.16673410  0.92219536  0.69152788     0.20600
H582        H  0.11401823  0.00643711  0.63160849     0.16600
H583        H  0.15532109  0.98322032  0.59569263     0.19100
H584        H  0.11679939  0.93837773  0.72521448     0.12500
C585        C  0.23414033  0.79532958  0.54078014     0.16400
C586        C  0.23199998  0.76244308  0.52965264    -0.32700
C587        C  0.23838574  0.73428436  0.54600673     0.20800
C588        C  0.24673963  0.73897988  0.57216107     0.03000
C589        C  0.24911739  0.77169664  0.58317274    -0.22400
C590        C  0.24247938  0.79966765  0.56694223     0.12100
S591        S  0.22685540  0.83288103  0.52468669    -0.06100
C592        C  0.23494342  0.85486667  0.55357013    -0.09500
C593        C  0.24302964  0.83336748  0.57433721    -0.26100
S594        S  0.25247194  0.70210090  0.58906657    -0.03300
C595        C  0.24322274  0.67928180  0.56084753    -0.16800
C596        C  0.23656968  0.70009008  0.53930665    -0.14800
H597        H  0.22528539  0.75894822  0.50922586     0.20600
H598        H  0.25546363  0.77517116  0.60368138     0.16600
H599        H  0.24937719  0.84155817  0.59399257     0.19100
H600        H  0.22980195  0.69079592  0.51998746     0.12500
C601        C  0.24385243  0.01693178  0.48213556     0.16400
C602        C  0.25519667  0.03655045  0.46049606    -0.32700
C603        C  0.23688491  0.06557438  0.45342593     0.20800
C604        C  0.20891346  0.07477559  0.46754191     0.03000
C605        C  0.19753556  0.05506359  0.48886211    -0.22400
C606        C  0.21550030  0.02599452  0.49567716     0.12100
S607        S  0.26240979  0.98126481  0.49469322    -0.06100
C608        C  0.23159367  0.97842450  0.51865122    -0.09500
C609        C  0.20815589  0.00418034  0.51605982    -0.26100
S610        S  0.19001148  0.11061887  0.45615464    -0.03300
C611        C  0.21944979  0.11324089  0.43149898    -0.16800
C612        C  0.24292860  0.08747084  0.43257902    -0.14800
H613        H  0.27724314  0.02949555  0.44963800     0.20600
H614        H  0.17547493  0.06209521  0.49972573     0.16600
H615        H  0.18686664  0.00812031  0.52855111     0.19100
H616        H  0.26297502  0.08455367  0.41855239     0.12500
C617        C  0.25564742  0.46001956  0.47087822     0.16400
C618        C  0.27175162  0.48238346  0.48879238    -0.32700
C619        C  0.25347169  0.50999785  0.49835250     0.20800
C620        C  0.22088515  0.51534255  0.49017658     0.03000
C621        C  0.20477377  0.49295742  0.47242138    -0.22400
C622        C  0.22278589  0.46514913  0.46314613     0.12100
S623        S  0.27346765  0.42559937  0.45614255    -0.06100
C624        C  0.23606595  0.41781765  0.43958310    -0.09500
C625        C  0.21141591  0.44098310  0.44549817    -0.26100
S626        S  0.20284521  0.54979983  0.50436708    -0.03300
C627        C  0.23894266  0.55660292  0.52282408    -0.16800
C628        C  0.26409056  0.53363134  0.51673249    -0.14800
H629        H  0.29733696  0.47835638  0.49509993     0.20600
H630        H  0.17915206  0.49694157  0.46619529     0.16600
H631        H  0.18676466  0.44101234  0.43646403     0.19100
H632        H  0.28874400  0.53319557  0.52558928     0.12500
C633        C  0.59014410  0.10672145  0.32072458     0.16400
C634        C  0.62091877  0.10945401  0.33370148    -0.32700
C635        C  0.62066635  0.11260738  0.36093694     0.20800
C636        C  0.59113366  0.11362151  0.37508760     0.03000
C637        C  0.55983097  0.11146908  0.36192993    -0.22400
C638        C  0.56007905  0.10763632  0.33432628     0.12100
S639        S  0.58634684  0.09865627  0.28811718    -0.06100
C640        C  0.54363069  0.09586076  0.29227382    -0.09500
C641        C  0.53292014  0.10169377  0.31782574    -0.26100
S642        S  0.59769083  0.11564280  0.40854532    -0.03300
C643        C  0.64051112  0.11524694  0.40277527    -0.16800
C644        C  0.64840351  0.11350754  0.37652422    -0.14800
H645        H  0.64435140  0.10788377  0.32302040     0.20600
H646        H  0.53648212  0.11151664  0.37273575     0.16600
H647        H  0.50709653  0.09921106  0.32424932     0.19100
H648        H  0.67371901  0.11169885  0.36888776     0.12500
C649        C  0.50801574  0.19024104  0.13189668     0.16400
C650        C  0.48934956  0.16821874  0.14813420    -0.32700
C651        C  0.50380455  0.15854276  0.17198994     0.20800
C652        C  0.53549530  0.17032567  0.17950861     0.03000
C653        C  0.55411548  0.19278792  0.16330029    -0.22400
C654        C  0.53960536  0.20241574  0.13926633     0.12100
S655        S  0.49479155  0.20413303  0.10208067    -0.06100
C656        C  0.53212983  0.22707185  0.09912900    -0.09500
C657        C  0.55358093  0.22372576  0.12056190    -0.26100
S658        S  0.54948655  0.15293340  0.20827054    -0.03300
C659        C  0.51215498  0.12985320  0.21007886    -0.16800
C660        C  0.49033088  0.13549921  0.18943318    -0.14800
H661        H  0.46479268  0.15852659  0.14218944     0.20600
H662        H  0.57902493  0.20180010  0.16892103     0.16600
H663        H  0.57799161  0.23618685  0.12250226     0.19100
H664        H  0.46676382  0.12166673  0.18646177     0.12500
C665        C  0.37290507  0.09908014  0.27319641     0.16400
C666        C  0.33785447  0.10390675  0.27533846    -0.32700
C667        C  0.32631210  0.12427706  0.29619246     0.20800
C668        C  0.34890540  0.13930344  0.31366659     0.03000
C669        C  0.38357095  0.13498969  0.31123170    -0.22400
C670        C  0.39498003  0.11455355  0.29079761     0.12100
S671        S  0.39272873  0.07424011  0.25039564    -0.06100
C672        C  0.43098081  0.08513130  0.26486818    -0.09500
C673        C  0.42790199  0.10696232  0.28603371    -0.26100
S674        S  0.33090719  0.16170457  0.33826490    -0.03300
C675        C  0.29199033  0.15100531  0.32549037    -0.16800
C676        C  0.29332143  0.13110375  0.30281294    -0.14800
H677        H  0.32039147  0.09181349  0.26173022     0.20600
H678        H  0.40100164  0.14664148  0.32509580     0.16600
H679        H  0.44882554  0.11657300  0.29771003     0.19100
H680        H  0.27148139  0.12151163  0.29220145     0.12500
C681        C  0.53795986  0.94750513  0.21633629     0.16400
C682        C  0.54314653  0.91247263  0.21223347    -0.32700
C683        C  0.57139716  0.90305014  0.19734343     0.20800
C684        C  0.59346933  0.92741897  0.18720246     0.03000
C685        C  0.58875723  0.96210951  0.19187748    -0.22400
C686        C  0.56061334  0.97144948  0.20651210     0.12100
S687        S  0.50491472  0.96514870  0.23299202    -0.06100
C688        C  0.52167414  0.00526951  0.22620968    -0.09500
C689        C  0.55194279  0.00401180  0.21256549    -0.26100
S690        S  0.62496595  0.91140090  0.16836624    -0.03300
C691        C  0.60878249  0.87108278  0.17415574    -0.16800
C692        C  0.58031391  0.87060089  0.19014734    -0.14800
H693        H  0.52567495  0.89345554  0.21989806     0.20600
H694        H  0.60602254  0.98116610  0.18397722     0.16600
H695        H  0.56726132  0.02611566  0.20737855     0.19100
H696        H  0.56625713  0.84775148  0.19553985     0.12500
C697        C  0.43426462  0.86454671  0.87014466     0.16400
C698        C  0.44920698  0.89194456  0.85686303    -0.32700
C699        C  0.43852194  0.89791281  0.83119409     0.20800
C700        C  0.41424162  0.87749518  0.81901012     0.03000
C701        C  0.39953865  0.84973290  0.83227572    -0.22400
C702        C  0.41004131  0.84392123  0.85816749     0.12100
S703        S  0.44339110  0.85371956  0.90156019    -0.06100
C704        C  0.41443433  0.82055016  0.89875563    -0.09500
C705        C  0.39846497  0.81865626  0.87449906    -0.26100
S706        S  0.40264649  0.89127006  0.78854522    -0.03300
C707        C  0.43017826  0.92514173  0.79288980    -0.16800
C708        C  0.44808895  0.92494498  0.81615024    -0.14800
H709        H  0.46778805  0.90839072  0.86633665     0.20600
H710        H  0.38021079  0.83391874  0.82309544     0.16600
H711        H  0.37980678  0.79970755  0.86867050     0.19100
H712        H  0.46537363  0.94501281  0.82252391     0.12500
C713        C  0.40846078  0.65438241  0.87839218     0.16400
C714        C  0.41645279  0.62300471  0.86739625    -0.32700
C715        C  0.40982917  0.61808004  0.84062741     0.20800
C716        C  0.39507370  0.64299374  0.82551559     0.03000
C717        C  0.38637147  0.67419795  0.83668255    -0.22400
C718        C  0.39381791  0.67941455  0.86339944     0.12100
S719        S  0.41764459  0.66626715  0.90983958    -0.06100
C720        C  0.40183222  0.70572323  0.90299204    -0.09500
C721        C  0.38981553  0.70887832  0.87739935    -0.26100
S722        S  0.39281702  0.63348738  0.79279803    -0.03300
C723        C  0.41231250  0.59586955  0.79962657    -0.16800
C724        C  0.41956622  0.59093215  0.82589215    -0.14800
H725        H  0.42876590  0.60382128  0.87894941     0.20600
H726        H  0.37574535  0.69410255  0.82480535     0.16600
H727        H  0.37983785  0.73175642  0.86896409     0.19100
H728        H  0.43365746  0.56985392  0.83346734     0.12500
C729        C  0.47709143  0.77795841  0.02403015     0.16400
C730        C  0.49080325  0.78585254  0.04882705    -0.32700
C731        C  0.52579839  0.78357550  0.05220798     0.20800
C732        C  0.54627504  0.77360893  0.03186354     0.03000
C733        C  0.53263197  0.76631393  0.00692859    -0.22400
C734        C  0.49764424  0.76875147  0.00353955     0.12100
S735        S  0.43525603  0.77911571  0.01586990    -0.06100
C736        C  0.44537112  0.76745440  0.98427445    -0.09500
C737        C  0.47970783  0.76293266  0.98078654    -0.26100
S738        S  0.58781847  0.77043666  0.04049770    -0.03300
C739        C  0.57767016  0.78326137  0.07176624    -0.16800
C740        C  0.54371276  0.78957532  0.07497863    -0.14800
H741        H  0.47484798  0.79327954  0.06485713     0.20600
H742        H  0.54855816  0.75875900  0.99091547     0.16600
H743        H  0.49102937  0.75637171  0.96226050     0.19100
H744        H  0.53250618  0.79706569  0.09332686     0.12500
C745        C  0.08728315  0.88091117  0.87106401     0.16400
C746        C  0.09703498  0.89676837  0.84740152    -0.32700
C747        C  0.07184864  0.91184454  0.83221195     0.20800
C748        C  0.03888426  0.91196532  0.84087833     0.03000
C749        C  0.02947891  0.89730564  0.86478734    -0.22400
C750        C  0.05423101  0.88134609  0.87942890     0.12100
S751        S  0.11226622  0.85598375  0.88995941    -0.06100
C752        C  0.07750087  0.84536467  0.90876314    -0.09500
C753        C  0.04861686  0.86165239  0.90120839    -0.26100
S754        S  0.01118148  0.92808359  0.81920470    -0.03300
C755        C  0.04388447  0.93430970  0.79753497    -0.16800
C756        C  0.07505645  0.92532478  0.80728566    -0.14800
H757        H  0.12259810  0.89554312  0.84039783     0.20600
H758        H  0.00347363  0.89654297  0.87093850     0.16600
H759        H  0.02400545  0.85679008  0.90955840     0.19100
H760        H  0.09825923  0.92689876  0.79631734     0.12500
C761        C  0.02651270  0.67211654  0.82454436     0.16400
C762        C  0.01817508  0.69323067  0.84520482    -0.32700
C763        C  0.04433020  0.70816895  0.85957557     0.20800
C764        C  0.07771765  0.70324584  0.85344408     0.03000
C765        C  0.08624256  0.68217338  0.83221714    -0.22400
C766        C  0.05964855  0.66632530  0.81804124     0.12100
S767        S  0.99749986  0.65103947  0.80614244    -0.06100
C768        C  0.02980272  0.63366479  0.78882373    -0.09500
C769        C  0.06178348  0.64382954  0.79736594    -0.26100
S770        S  0.10525401  0.72334105  0.87470790    -0.03300
C771        C  0.07097386  0.73690466  0.89218073    -0.16800
C772        C  0.04036208  0.72742696  0.88139290    -0.14800
H773        H  0.99219307  0.69713700  0.85034044     0.20600
H774        H  0.11220881  0.67770458  0.82742012     0.16600
H775        H  0.08504522  0.63560151  0.78883664     0.19100
H776        H  0.01618634  0.73374045  0.88944285     0.12500
C777        C  0.91860749  0.76420713  0.01886495     0.16400
C778        C  0.93539884  0.77257437  0.99526276    -0.32700
C779        C  0.97043681  0.76773693  0.99400109     0.20800
C780        C  0.98780411  0.75435709  0.01502135     0.03000
C781        C  0.97084865  0.74495279  0.03821701    -0.22400
C782        C  0.93609134  0.75066543  0.03977913     0.12100
S783        S  0.87711927  0.77193596  0.02583318    -0.06100
C784        C  0.88356885  0.75751345  0.05750475    -0.09500
C785        C  0.91615729  0.74644935  0.06168674    -0.26100
S786        S  0.03045814  0.75237750  0.01020260    -0.03300
C787        C  0.02534771  0.77010993  0.97945442    -0.16800
C788        C  0.99167871  0.77629275  0.97351685    -0.14800
H789        H  0.92201263  0.78370283  0.97898394     0.20600
H790        H  0.98447240  0.73493846  0.05481389     0.16600
H791        H  0.92538138  0.73737878  0.08036744     0.19100
H792        H  0.98324561  0.78695552  0.95511702     0.12500
C793        C  0.21027456  0.77509426  0.96628815     0.16400
C794        C  0.24270190  0.77536211  0.97772568    -0.32700
C795        C  0.27069612  0.77415180  0.96078694     0.20800
C796        C  0.26627168  0.77299826  0.93385618     0.03000
C797        C  0.23420768  0.77268433  0.92257161    -0.22400
C798        C  0.20651673  0.77362064  0.93934251     0.12100
S799        S  0.17259725  0.77635168  0.98270932    -0.06100
C800        C  0.15177627  0.77493726  0.95278631    -0.09500
C801        C  0.17357730  0.77319767  0.93160231    -0.26100
S802        S  0.30245988  0.77139730  0.91640413    -0.03300
C803        C  0.32483647  0.77184229  0.94547048    -0.16800
C804        C  0.30438311  0.77353206  0.96764573    -0.14800
H805        H  0.24595041  0.77630968  0.99879911     0.20600
H806        H  0.23095726  0.77159252  0.90148751     0.16600
H807        H  0.16624269  0.77134978  0.91123602     0.19100
H808        H  0.31345322  0.77392038  0.98766980     0.12500
C809        C  0.89883513  0.35666706  0.14538876     0.16400
C810        C  0.91335817  0.36341469  0.16991615    -0.32700
C811        C  0.90744454  0.39492929  0.18148006     0.20800
C812        C  0.88750843  0.41875539  0.16944376     0.03000
C813        C  0.87276477  0.41197236  0.14473894    -0.22400
C814        C  0.87908948  0.38038538  0.13291952     0.12100
S815        S  0.90388801  0.31997211  0.12830241    -0.06100
C816        C  0.87948556  0.33652380  0.10380134    -0.09500
C817        C  0.86780008  0.36885720  0.10880545    -0.26100
S818        S  0.88443280  0.45579947  0.18696560    -0.03300
C819        C  0.91101004  0.43913123  0.21028465    -0.16800
C820        C  0.92078578  0.40632922  0.20473128    -0.14800
H821        H  0.92906022  0.34498855  0.17945371     0.20600
H822        H  0.85746672  0.43059721  0.13504061     0.16600
H823        H  0.85200282  0.38300049  0.09560314     0.19100
H824        H  0.93743169  0.39164539  0.21688429     0.12500
C825        C  0.82354220  0.46735040  0.37564228     0.16400
C826        C  0.85288791  0.47984731  0.36362310    -0.32700
C827        C  0.85679217  0.47388831  0.33672070     0.20800
C828        C  0.83266142  0.45623531  0.32217102     0.03000
C829        C  0.80321278  0.44344657  0.33430140    -0.22400
C830        C  0.79929194  0.44944945  0.36138555     0.12100
S831        S  0.81379786  0.47328011  0.40787167    -0.06100
C832        C  0.77632261  0.45147043  0.40244757    -0.09500
C833        C  0.77222396  0.44003046  0.37671858    -0.26100
S834        S  0.84308016  0.45153890  0.28966155    -0.03300
C835        C  0.88050620  0.47309779  0.29608532    -0.16800
C836        C  0.88397432  0.48361746  0.32195824    -0.14800
H837        H  0.87187991  0.49379271  0.37477289     0.20600
H838        H  0.78420178  0.42953991  0.32315405     0.16600
H839        H  0.75009660  0.42675669  0.36921724     0.19100
H840        H  0.90584622  0.49708649  0.32978316     0.12500
C841        C  0.08732525  0.40155906  0.31235056     0.16400
C842        C  0.05540138  0.39984876  0.30058506    -0.32700
C843        C  0.04068117  0.43042576  0.29293878     0.20800
C844        C  0.05700224  0.46154812  0.29650291     0.03000
C845        C  0.08887260  0.46335282  0.30882237    -0.22400
C846        C  0.10355252  0.43260337  0.31678702     0.12100
S847        S  0.10939880  0.36706459  0.32242982    -0.06100
C848        C  0.14083973  0.39441314  0.33342592    -0.09500
C849        C  0.13418841  0.42866821  0.32921609    -0.26100
S850        S  0.03441424  0.49546948  0.28510232    -0.03300
C851        C  0.00243675  0.46732526  0.27577279    -0.16800
C852        C  0.00960496  0.43361131  0.28157289    -0.14800
H853        H  0.04254102  0.37560407  0.29746729     0.20600
H854        H  0.10165263  0.48760358  0.31204719     0.16600
H855        H  0.15098082  0.44952614  0.33476487     0.19100
H856        H  0.99254765  0.41228460  0.27780176     0.12500
C857        C  0.90503138  0.60801405  0.21889290     0.16400
C858        C  0.89975945  0.64290455  0.21407468    -0.32700
C859        C  0.87799739  0.65174548  0.19326866     0.20800
C860        C  0.86253605  0.62688437  0.17788584     0.03000
C861        C  0.86768313  0.59220177  0.18277794    -0.22400
C862        C  0.88898891  0.58339098  0.20366860     0.12100
S863        S  0.93037242  0.59145477  0.24300644    -0.06100
C864        C  0.91860335  0.55090205  0.23278626    -0.09500
C865        C  0.89641701  0.55091772  0.21162034    -0.26100
S866        S  0.83760204  0.64243282  0.15335186    -0.03300
C867        C  0.84748152  0.68315988  0.16380549    -0.16800
C868        C  0.86940404  0.68411648  0.18530615    -0.14800
H869        H  0.91202310  0.66228687  0.22603112     0.20600
H870        H  0.85543982  0.57280905  0.17081370     0.16600
H871        H  0.88625803  0.52821826  0.20230731     0.19100
H872        H  0.87885931  0.70728288  0.19444150     0.12500
C873        C  0.81452332  0.05017332  0.32698489     0.16400
C874        C  0.80274439  0.04485970  0.35273553    -0.32700
C875        C  0.77848826  0.06701998  0.36235402     0.20800
C876        C  0.76594647  0.09248079  0.34663996     0.03000
C877        C  0.77634870  0.09659866  0.32052537    -0.22400
C878        C  0.80134893  0.07530723  0.31118588     0.12100
S879        S  0.84887449  0.03145530  0.31388548    -0.06100
C880        C  0.84591029  0.05819744  0.28705664    -0.09500
C881        C  0.81870845  0.07942940  0.28801003    -0.26100
S882        S  0.73997172  0.11921608  0.36253262    -0.03300
C883        C  0.74477046  0.09561566  0.39086199    -0.16800
C884        C  0.76619377  0.06838068  0.38764202    -0.14800
H885        H  0.81370394  0.02586905  0.36530352     0.20600
H886        H  0.76704517  0.11712922  0.30858576     0.16600
H887        H  0.81431497  0.09959905  0.27403277     0.19100
H888        H  0.77306470  0.05082615  0.40297855     0.12500
C889        C  0.85321579  0.19570877  0.14202262     0.16400
C890        C  0.84250350  0.18023695  0.16563880    -0.32700
C891        C  0.86237949  0.15448522  0.17637787     0.20800
C892        C  0.89130586  0.14446912  0.16382194     0.03000
C893        C  0.90180260  0.15972875  0.14024079    -0.22400
C894        C  0.88224258  0.18564109  0.12974017     0.12100
S895        S  0.83390220  0.22854206  0.12640513    -0.06100
C896        C  0.86534372  0.22891431  0.10304228    -0.09500
C897        C  0.88929411  0.20438339  0.10753010    -0.26100
S898        S  0.91335364  0.11470341  0.18046587    -0.03300
C899        C  0.88375442  0.11574135  0.20502688    -0.16800
C900        C  0.85779042  0.13790290  0.20011575    -0.14800
H901        H  0.82015103  0.18850535  0.17552965     0.20600
H902        H  0.92478326  0.15228685  0.13081114     0.16600
H903        H  0.91134892  0.20080783  0.09564716     0.19100
H904        H  0.83785140  0.14306486  0.21379506     0.12500
C905        C  0.89873834  0.95275619  0.19726688     0.16400
C906        C  0.90148045  0.91852655  0.19008288    -0.32700
C907        C  0.87918712  0.90540203  0.17102100     0.20800
C908        C  0.85588047  0.92572225  0.15880927     0.03000
C909        C  0.85326824  0.96021155  0.16588765    -0.22400
C910        C  0.87486306  0.97306103  0.18575997     0.12100
S911        S  0.92217895  0.97251337  0.22122296    -0.06100
C912        C  0.89914826  0.00857920  0.21651884    -0.09500
C913        C  0.87486098  0.00511581  0.19682398    -0.26100
S914        S  0.83032150  0.90413247  0.13688218    -0.03300
C915        C  0.85039013  0.86718792  0.14520542    -0.16800
C916        C  0.87613478  0.87199723  0.16334351    -0.14800
H917        H  0.91950992  0.90244999  0.19963639     0.20600
H918        H  0.83448573  0.97598720  0.15696159     0.16600
H919        H  0.85793983  0.02487665  0.19099497     0.19100
H920        H  0.89112621  0.85178232  0.17124582     0.12500
C921        C  0.02209421  0.11897933  0.28311317     0.16400
C922        C  0.05284858  0.13724839  0.28435144    -0.32700
C923        C  0.07024337  0.13819432  0.30838305     0.20800
C924        C  0.05755204  0.12159901  0.33032694     0.03000
C925        C  0.02632570  0.10376575  0.32921474    -0.22400
C926        C  0.00882807  0.10296427  0.30505941     0.12100
S927        S  0.99793699  0.11436080  0.25552815    -0.06100
C928        C  0.96822840  0.09175682  0.27362328    -0.09500
C929        C  0.97798244  0.08735379  0.29981613    -0.26100
S930        S  0.08360495  0.12462473  0.35721825    -0.03300
C931        C  0.11187311  0.14857240  0.33868973    -0.16800
C932        C  0.10106819  0.15387406  0.31309466    -0.14800
H933        H  0.06299235  0.14993802  0.26716249     0.20600
H934        H  0.01625012  0.09089650  0.34635109     0.16600
H935        H  0.96344392  0.07361428  0.31442585     0.19100
H936        H  0.11541373  0.16783218  0.29844950     0.12500
C937        C  0.58603788  0.45301001  0.33198968     0.16400
C938        C  0.59488121  0.43722758  0.35567443    -0.32700
C939        C  0.62571944  0.44699247  0.36725806     0.20800
C940        C  0.64661554  0.47155050  0.35584421     0.03000
C941        C  0.63751872  0.48766955  0.33250447    -0.22400
C942        C  0.60691819  0.47773948  0.32087764     0.12100
S943        S  0.55010095  0.44453499  0.31437862    -0.06100
C944        C  0.56331392  0.47487649  0.29200625    -0.09500
C945        C  0.59403950  0.49039157  0.29808484    -0.26100
S946        S  0.68295798  0.47992041  0.37263269    -0.03300
C947        C  0.67001810  0.45000704  0.39524763    -0.16800
C948        C  0.63902669  0.43462038  0.39015699    -0.14800
H949        H  0.57859163  0.41805341  0.36456664     0.20600
H950        H  0.65371185  0.50700049  0.32368877     0.16600
H951        H  0.60637596  0.51005499  0.28647217     0.19100
H952        H  0.62680623  0.41586574  0.40268333     0.12500
C953        C  0.53527657  0.39282404  0.17906506     0.16400
C954        C  0.54436081  0.36279597  0.16641056    -0.32700
C955        C  0.53574641  0.35915968  0.13976867     0.20800
C956        C  0.51856356  0.38401936  0.12639026     0.03000
C957        C  0.50939988  0.41388672  0.13901446    -0.22400
C958        C  0.51834472  0.41768301  0.16547834     0.12100
S959        S  0.54383250  0.40288020  0.21118708    -0.06100
C960        C  0.52497311  0.44122800  0.20592169    -0.09500
C961        C  0.51234377  0.44529122  0.18071968    -0.26100
S962        S  0.51046835  0.37485288  0.09423616    -0.03300
C963        C  0.53086650  0.33712443  0.09859815    -0.16800
C964        C  0.54279028  0.33218071  0.12396563    -0.14800
H965        H  0.55781101  0.34329140  0.17676866     0.20600
H966        H  0.49615951  0.43349730  0.12859633     0.16600
H967        H  0.49936429  0.46745304  0.17379942     0.19100
H968        H  0.55554798  0.30991370  0.13084009     0.12500
C969        C  0.34852526  0.43380321  0.30858440     0.16400
C970        C  0.36633281  0.45895954  0.29447814    -0.32700
C971        C  0.40007448  0.45330162  0.28860113     0.20800
C972        C  0.41546636  0.42371852  0.29627754     0.03000
C973        C  0.39769046  0.39848659  0.31064284    -0.22400
C974        C  0.36382903  0.40432751  0.31674969     0.12100
S975        S  0.30729170  0.43616923  0.31711634    -0.06100
C976        C  0.31026385  0.39716525  0.33219573    -0.09500
C977        C  0.34201043  0.38324093  0.33065639    -0.26100
S978        S  0.45662206  0.42202245  0.28695316    -0.03300
C979        C  0.45325917  0.46190410  0.27287163    -0.16800
C980        C  0.42142278  0.47517022  0.27527843    -0.14800
H981        H  0.35433851  0.48205864  0.28833696     0.20600
H982        H  0.40972243  0.37542463  0.31681590     0.16600
H983        H  0.34861651  0.35895878  0.33896203     0.19100
H984        H  0.41401509  0.49960053  0.26778439     0.12500
C985        C  0.52767212  0.61078506  0.20130027     0.16400
C986        C  0.53620758  0.63214763  0.18012237    -0.32700
C987        C  0.55994051  0.65856068  0.18466040     0.20800
C988        C  0.57315506  0.66455510  0.20946667     0.03000
C989        C  0.56366769  0.64394432  0.23077983    -0.22400
C990        C  0.54140472  0.61641643  0.22592377     0.12100
S991        S  0.50481835  0.57363093  0.19877859    -0.06100
C992        C  0.51649515  0.56368977  0.23062916    -0.09500
C993        C  0.53421640  0.59024017  0.24295874    -0.26100
S994        S  0.60293475  0.69659053  0.21071567    -0.03300
C995        C  0.59825263  0.70150655  0.17733032    -0.16800
C996        C  0.57418551  0.67978746  0.16613159    -0.14800
H997        H  0.52654684  0.62699868  0.16061002     0.20600
H998        H  0.57496804  0.64777894  0.24993401     0.16600
H999        H  0.54402395  0.58965620  0.26273157     0.19100
H1000       H  0.56765694  0.67938268  0.14549584     0.12500
loop_ 
_geom_bond_atom_site_label_1 
_geom_bond_atom_site_label_2 
_geom_bond_distance 
_geom_bond_site_symmetry_2 
_ccdc_geom_bond_type 
C1            C2   1.531       .  S
C1            C7   1.538       .  S
C1            C5   1.544       .  S
C1          C992   1.534       .  S
C2            H9   1.085       .  S
C2            C3   1.360       .  D
C3            C4   1.543       .  S
C3          C960   1.482       .  S
C4            C8   1.542       .  S
C4            C6   1.544       .  S
C4           H10   1.109       .  S
C5           H11   1.084       .  S
C5            C6   1.381       .  D
C6          C979   1.497       .  S
C7           H12   1.082       .  S
C7            C8   1.363       .  D
C8          C944   1.482       .  S
C13          C14   1.530       .  S
C13          C19   1.538       .  S
C13          C17   1.546       .  S
C13         C928   1.539       .  S
C14          H21   1.084       .  S
C14          C15   1.365       .  D
C15          C16   1.556       .  S
C15         C880   1.486       .  S
C16          C20   1.547       .  S
C16          C18   1.547       .  S
C16          H22   1.110       .  S
C17          H23   1.085       .  S
C17          C18   1.378       .  D
C18         C912   1.497       .  S
C19          H24   1.086       .  S
C19          C20   1.364       .  D
C20         C899   1.488       .  S
C25          C26   1.535       .  S
C25          C31   1.525       .  S
C25          C29   1.555       .  S
C25         C851   1.535   1_655  S
C26          H33   1.086       .  S
C26          C27   1.366       .  D
C27          C28   1.543       .  S
C27         C819   1.490       .  S
C28          C32   1.551       .  S
C28          C30   1.552       .  S
C28          H34   1.110       .  S
C29          H35   1.085       .  S
C29          C30   1.383       .  D
C30         C864   1.504       .  S
C31          H36   1.087       .  S
C31          C32   1.363       .  D
C32         C835   1.488       .  S
C37          C38   1.542       .  S
C37          C43   1.558       .  S
C37          C41   1.531       .  S
C37         C787   1.538       .  S
C38          H45   1.086       .  S
C38          C39   1.370       .  D
C39          C40   1.535       .  S
C39         C752   1.485       .  S
C40          C44   1.543       .  S
C40          C42   1.529       .  S
C40          H46   1.104       .  S
C41          H47   1.086       .  S
C41          C42   1.364       .  D
C42         C771   1.478       .  S
C43          H48   1.085       .  S
C43          C44   1.381       .  D
C44         C800   1.503       .  S
C49          C50   1.541       .  S
C49          C55   1.551       .  S
C49          C53   1.529       .  S
C49         C736   1.529       .  S
C50          H57   1.085       .  S
C50          C51   1.371       .  D
C51          C52   1.538       .  S
C51         C720   1.493       .  S
C52          C56   1.547       .  S
C52          C54   1.538       .  S
C52          H58   1.101       .  S
C53          H59   1.086       .  S
C53          C54   1.363       .  D
C54         C704   1.483       .  S
C55          H60   1.084       .  S
C55          C56   1.377       .  D
C56         C803   1.502       .  S
In61         O63   2.301       .  S
In61         O64   2.269       .  S
In61         O72   2.270       .  S
In61         O66   2.292       .  S
In61         O68   2.332       .  S
In61         O69   2.271       .  S
In61         O70   2.322       .  S
In61         O73   2.270       .  S
C62          O68   1.261       .  A
C62          O70   1.262       .  A
C62          C75   1.514       .  S
O63          C71   1.268       .  A
O64          C71   1.257       .  A
C65          O72   1.258       .  A
C65          O66   1.263       .  A
C65         C739   1.487       .  S
C67          O69   1.256       .  A
C67          O73   1.258       .  A
C67         C995   1.477       .  S
C71         C691   1.494       .  S
In74         O76   2.280       .  S
In74         O77   2.286       .  S
In74         O85   2.333       .  S
In74         O79   2.271       .  S
In74         O81   2.306       .  S
In74         O82   2.292       .  S
In74         O83   2.332       .  S
In74         O86   2.259       .  S
C75          O81   1.261       .  A
C75          O83   1.267       .  A
O76          C84   1.262       .  A
O77          C84   1.267       .  A
C78          O85   1.266       .  A
C78          O79   1.255       .  A
C78         C784   1.501       .  S
C80          O82   1.260       .  A
C80          O86   1.258       .  A
C80         C915   1.484       .  S
C84         C867   1.497       .  S
C87          C88   1.531       .  S
C87          C93   1.535       .  S
C87          C91   1.557       .  S
C87         C688   1.537       .  S
C88          H95   1.087       .  S
C88          C89   1.362       .  D
C89          C90   1.539       .  S
C89         C640   1.478       .  S
C90          C94   1.541       .  S
C90          C92   1.550       .  S
C90          H96   1.110       .  S
C91          H97   1.085       .  S
C91          C92   1.385       .  D
C92         C672   1.501       .  S
C93          H98   1.087       .  S
C93          C94   1.358       .  D
C94         C659   1.476       .  S
In99        O101   2.284       .  S
In99        O102   2.285       .  S
In99        O110   2.294       .  S
In99        O104   2.268       .  S
In99        O106   2.280       .  S
In99        O107   2.260       .  S
In99        O108   2.335       .  S
In99        O111   2.298       .  S
C100        O106   1.260       .  A
C100        O108   1.267       .  A
C100        C113   1.506       .  S
O101        C109   1.262       .  A
O102        C109   1.258       .  A
C103        O110   1.262       .  A
C103        O104   1.260       .  A
C103        C624   1.491       .  S
C105        O107   1.258       .  A
C105        O111   1.260       .  A
C105        C976   1.483       .  S
C109        C848   1.489       .  S
In112       O114   2.304       .  S
In112       O115   2.247       .  S
In112       O123   2.295       .  S
In112       O117   2.284       .  S
In112       O119   2.347       .  S
In112       O120   2.305       .  S
In112       O121   2.291       .  S
In112       O124   2.291       .  S
C113        O119   1.263       .  A
C113        O121   1.256       .  A
O114        C122   1.267       .  A
O115        C122   1.264       .  A
C116        O123   1.265       .  A
C116        O117   1.258       .  A
C116        C611   1.493       .  S
C118        O120   1.260       .  A
C118        O124   1.255       .  A
C118        C931   1.493       .  S
C122        C675   1.492       .  S
C125        C126   1.544       .  S
C125        C131   1.547       .  S
C125        C129   1.539       .  S
C125        C608   1.548       .  S
C126        H133   1.075       .  S
C126        C127   1.366       .  D
C127        C128   1.540       .  S
C127        C576   1.499       .  S
C128        C132   1.552       .  S
C128        C130   1.532       .  S
C128        H134   1.104       .  S
C129        H135   1.086       .  S
C129        C130   1.369       .  D
C130        C563   1.478       .  S
C131        H136   1.085       .  S
C131        C132   1.380       .  D
C132        C592   1.510       .  S
C137        C138   1.542       .  S
C137        C143   1.557       .  S
C137        C141   1.541       .  S
C137        C627   1.540       .  S
C138        H145   1.083       .  S
C138        C139   1.358       .  D
C139        C140   1.526       .  S
C139        C531   1.463       .  S
C140        C144   1.542       .  S
C140        C142   1.535       .  S
C140        H146   1.107       .  S
C141        H147   1.085       .  S
C141        C142   1.367       .  D
C142        C544   1.484       .  S
C143        H148   1.085       .  S
C143        C144   1.381       .  D
C144        C595   1.507       .  S
In149       O151   2.259       .  S
In149       O152   2.269       .  S
In149       O160   2.304       .  S
In149       O154   2.300       .  S
In149       O156   2.331       .  S
In149       O157   2.269       .  S
In149       O158   2.286       .  S
In149       O161   2.282       .  S
C150        O156   1.265       .  A
C150        O158   1.261       .  A
C150        C163   1.506       .  S
O151        C159   1.260       .  A
O152        C159   1.265       .  A
C153        O160   1.263       .  A
C153        O154   1.258       .  A
C153        C512   1.501       .  S
C155        O157   1.256       .  A
C155        O161   1.262       .  A
C155        C499   1.483       .  S
C159        C480   1.481       .  S
In162       O164   2.280       .  S
In162       O165   2.275       .  S
In162       O173   2.313       .  S
In162       O167   2.257       .  S
In162       O169   2.335       .  S
In162       O170   2.283       .  S
In162       O171   2.278       .  S
In162       O174   2.251       .  S
C163        O169   1.269       .  A
C163        O171   1.260       .  A
O164        C172   1.259       .  A
O165        C172   1.256       .  A
C166        O173   1.267       .  A
C166        O167   1.257       .  A
C166        C464   1.495       .  S
C168        O170   1.261       .  A
C168        O174   1.260       .  A
C168        C448   1.481       .  S
C172        C435   1.481       .  S
C175        C176   1.551       .  S
C175        C181   1.549       .  S
C175        C179   1.547       .  S
C175        C515   1.544       .  S
C176        H183   1.086       .  S
C176        C177   1.372       .  D
C177        C178   1.542       .  S
C177        C643   1.489       .  S
C178        C182   1.541       .  S
C178        C180   1.544       .  S
C178        H184   1.109       .  S
C179        H185   1.085       .  S
C179        C180   1.372       .  D
C180        C883   1.505       .  S
C181        H186   1.085       .  S
C181        C182   1.370       .  D
C182        C416   1.499       .  S
C187        C188   1.544       .  S
C187        C193   1.552       .  S
C187        C191   1.543       .  S
C187        C467   1.549       .  S
C188        H195   1.086       .  S
C188        C189   1.372       .  D
C189        C190   1.538       .  S
C189        C832   1.493       .  S
C190        C194   1.546       .  S
C190        C192   1.531       .  S
C190        H196   1.109       .  S
C191        H197   1.084       .  S
C191        C192   1.357       .  D
C192        C947   1.468       .  S
C193        H198   1.085       .  S
C193        C194   1.382       .  D
C194        C419   1.503       .  S
C199        C200   1.527   1_545  S
C199        C205   1.529       .  S
C199        C203   1.561       .  S
C199        C400   1.525       .  S
C200        H207   1.087       .  S
C200        C201   1.352       .  D
C201        C202   1.525       .  S
C201        C707   1.463       .  S
C202        C206   1.532       .  S
C202        C204   1.550       .  S
C202        H208   1.108       .  S
C203        H209   1.085       .  S
C203        C204   1.393   1_545  D
C204        C496   1.501       .  S
C205        H210   1.087       .  S
C205        C206   1.359   1_545  D
C206        C560   1.478       .  S
C211        C212   1.523   1_655  S
C211        C217   1.529   1_655  S
C211        C215   1.554   1_565  S
C211        C483   1.525       .  S
C212        H219   1.087   1_455  S
C212        C213   1.363       .  D
C213        C214   1.543       .  S
C213        C755   1.483       .  S
C214        C218   1.545       .  S
C214        C216   1.544   1_565  S
C214        H220   1.110       .  S
C215        H221   1.085       .  S
C215        C216   1.381   1_655  D
C216        C387   1.493       .  S
C217        H222   1.085       .  S
C217        C218   1.361       .  D
C218        C579   1.478       .  S
C223        C224   1.532   1_655  S
C223        C229   1.523       .  S
C223        C227   1.544       .  S
C223        C451   1.524       .  S
C224        H231   1.086       .  S
C224        C225   1.362       .  D
C225        C226   1.542       .  S
C225        C547   1.469       .  S
C226        C230   1.542       .  S
C226        C228   1.547       .  S
C226        H232   1.110       .  S
C227        H233   1.085       .  S
C227        C228   1.379   1_655  D
C228        C371   1.490       .  S
C229        H234   1.086       .  S
C229        C230   1.365   1_655  D
C230        C768   1.482       .  S
C235        C236   1.544       .  S
C235        C241   1.553       .  S
C235        C239   1.540       .  S
C235        C336   1.544       .  S
C236        H243   1.080       .  S
C236        C237   1.362       .  D
C237        C238   1.534       .  S
C237        C656   1.491       .  S
C238        C242   1.550       .  S
C238        C240   1.535       .  S
C238        H244   1.103       .  S
C239        H245   1.086       .  S
C239        C240   1.367       .  D
C240        C963   1.485       .  S
C241        H246   1.085       .  S
C241        C242   1.382       .  D
C242        C355   1.508       .  S
C247        C248   1.543       .  S
C247        C253   1.551       .  S
C247        C251   1.542       .  S
C247        C320   1.543       .  S
C248        H255   1.086       .  S
C248        C249   1.367       .  D
C249        C250   1.536       .  S
C249        C816   1.478       .  S
C250        C254   1.550       .  S
C250        C252   1.544       .  S
C250        H256   1.106       .  S
C251        H257   1.084       .  S
C251        C252   1.373       .  D
C252        C896   1.501       .  S
C253        H258   1.084       .  S
C253        C254   1.376       .  D
C254        C352   1.508       .  S
In259       O261   2.253       .  S
In259       O262   2.229       .  S
In259       O270   2.285       .  S
In259       O264   2.265       .  S
In259       O266   2.318       .  S
In259       O267   2.249       .  S
In259       O268   2.294       .  S
In259       O271   2.291       .  S
C260        O266   1.260       .  A
C260        O268   1.257       .  A
C260        C273   1.497       .  S
O261        C269   1.262       .  A
O262        C269   1.263       .  A
C263        O270   1.265       .  A
C263        O264   1.257       .  A
C263        C339   1.486       .  S
C265        O267   1.253       .  A
C265        O271   1.264       .  A
C265        C403   1.479       .  S
C269        C307   1.468       .  S
In272       O274   2.277       .  S
In272       O275   2.265       .  S
In272       O283   2.286       .  S
In272       O277   2.311       .  S
In272       O279   2.309       .  S
In272       O280   2.303       .  S
In272       O281   2.285       .  S
In272       O284   2.255       .  S
C273        O279   1.264       .  A
C273        O281   1.260       .  A
O274        C282   1.265       .  A
O275        C282   1.260       .  A
C276        O283   1.257       .  A
C276        O277   1.263       .  A
C276        C323   1.499       .  S
C278        O280   1.261       .  A
C278        O284   1.257       .  A
C278        C368   1.486       .  S
C282        C384   1.485       .  S
C285        C286   1.539       .  S
C285        C291   1.528       .  S
C285        C289   1.546       .  S
C285        C432   1.520       .  S
C286        H293   1.086       .  S
C286        C287   1.363       .  D
C287        C288   1.538       .  S
C287        C723   1.473       .  S
C288        C292   1.530       .  S
C288        C290   1.538       .  S
C288        H294   1.111       .  S
C289        H295   1.085       .  S
C289        C290   1.373       .  D
C290        C304   1.470       .  S
C291        H296   1.087       .  S
C291        C292   1.362       .  D
C292        C528   1.464       .  S
C297        S303   1.707       .  A
C297        C302   1.387       .  A
C297        C298   1.399       .  A
C298        C299   1.400       .  A
C298        H309   1.083       .  S
C299        C308   1.366       .  A
C299        C300   1.386       .  A
C300        S306   1.714       .  A
C300        C301   1.405       .  A
C301        C302   1.407       .  A
C301        H310   1.083       .  S
C302        C305   1.373       .  A
S303        C304   1.718       .  A
C304        C305   1.387       .  A
C305        H311   1.083       .  S
S306        C307   1.724       .  A
C307        C308   1.384       .  A
C308        H312   1.083       .  S
C313        S319   1.719       .  A
C313        C318   1.384   1_556  A
C313        C314   1.411       .  A
C314        C315   1.411       .  A
C314        H325   1.083       .  S
C315        C324   1.384   1_655  A
C315        C316   1.385   1_655  A
C316        S322   1.722       .  A
C316        C317   1.413       .  A
C317        C318   1.414   1_456  A
C317        H326   1.083   1_556  S
C318        C321   1.385       .  A
S319        C320   1.732   1_556  A
C320        C321   1.400       .  A
C321        H327   1.083       .  S
S322        C323   1.730       .  A
C323        C324   1.395       .  A
C324        H328   1.083       .  S
C329        S335   1.724       .  A
C329        C334   1.381       .  A
C329        C330   1.413       .  A
C330        C331   1.415       .  A
C330        H341   1.083       .  S
C331        C340   1.381       .  A
C331        C332   1.385       .  A
C332        S338   1.714       .  A
C332        C333   1.402       .  A
C333        C334   1.406       .  A
C333        H342   1.083       .  S
C334        C337   1.372   1_556  A
S335        C336   1.736   1_556  A
C336        C337   1.400       .  A
C337        H343   1.078       .  S
S338        C339   1.722       .  A
C339        C340   1.396       .  A
C340        H344   1.083       .  S
C345        S351   1.720       .  A
C345        C350   1.384       .  A
C345        C346   1.416       .  A
C346        C347   1.415       .  A
C346        H357   1.083       .  S
C347        C356   1.390       .  A
C347        C348   1.385       .  A
C348        S354   1.704       .  A
C348        C349   1.405       .  A
C349        C350   1.404       .  A
C349        H358   1.083       .  S
C350        C353   1.378       .  A
S351        C352   1.735       .  A
C352        C353   1.394       .  A
C353        H359   1.081       .  S
S354        C355   1.729       .  A
C355        C356   1.399       .  A
C356        H360   1.082       .  S
C361        S367   1.723       .  A
C361        C366   1.385       .  A
C361        C362   1.414       .  A
C362        C363   1.414       .  A
C362        H373   1.083       .  S
C363        C372   1.384       .  A
C363        C364   1.386       .  A
C364        S370   1.707       .  A
C364        C365   1.400       .  A
C365        C366   1.401       .  A
C365        H374   1.083       .  S
C366        C369   1.371       .  A
S367        C368   1.731       .  A
C368        C369   1.386       .  A
C369        H375   1.083       .  S
S370        C371   1.721       .  A
C371        C372   1.395       .  A
C372        H376   1.083       .  S
C377        S383   1.715       .  A
C377        C382   1.386       .  A
C377        C378   1.410       .  A
C378        C379   1.409       .  A
C378        H389   1.083       .  S
C379        C388   1.382       .  A
C379        C380   1.386       .  A
C380        S386   1.706       .  A
C380        C381   1.404       .  A
C381        C382   1.404       .  A
C381        H390   1.083       .  S
C382        C385   1.377       .  A
S383        C384   1.729       .  A
C384        C385   1.388       .  A
C385        H391   1.083       .  S
S386        C387   1.726       .  A
C387        C388   1.393       .  A
C388        H392   1.082       .  S
C393        S399   1.684       .  A
C393        C398   1.386       .  A
C393        C394   1.398       .  A
C394        C395   1.394       .  A
C394        H405   1.083       .  S
C395        C404   1.374       .  A
C395        C396   1.387       .  A
C396        S402   1.712       .  A
C396        C397   1.415       .  A
C397        C398   1.411       .  A
C397        H406   1.083       .  S
C398        C401   1.393       .  A
S399        C400   1.732       .  A
C400        C401   1.395       .  A
C401        H407   1.082       .  S
S402        C403   1.731       .  A
C403        C404   1.382       .  A
C404        H408   1.083       .  S
C409        S415   1.719       .  A
C409        C414   1.386       .  A
C409        C410   1.410       .  A
C410        C411   1.411       .  A
C410        H421   1.083       .  S
C411        C420   1.382       .  A
C411        C412   1.385       .  A
C412        S418   1.721       .  A
C412        C413   1.411       .  A
C413        C414   1.411       .  A
C413        H422   1.083       .  S
C414        C417   1.383       .  A
S415        C416   1.728       .  A
C416        C417   1.393       .  A
C417        H423   1.083       .  S
S418        C419   1.729       .  A
C419        C420   1.395       .  A
C420        H424   1.083       .  S
C425        S431   1.717       .  A
C425        C430   1.384       .  A
C425        C426   1.408       .  A
C426        C427   1.410       .  A
C426        H437   1.083       .  S
C427        C436   1.377       .  A
C427        C428   1.386       .  A
C428        S434   1.711       .  A
C428        C429   1.402       .  A
C429        C430   1.403       .  A
C429        H438   1.083       .  S
C430        C433   1.369       .  A
S431        C432   1.729       .  A
C432        C433   1.392       .  A
C433        H439   1.083       .  S
S434        C435   1.723       .  A
C435        C436   1.392       .  A
C436        H440   1.083       .  S
C441        S447   1.706       .  A
C441        C446   1.386       .  A
C441        C442   1.399       .  A
C442        C443   1.401       .  A
C442        H453   1.083       .  S
C443        C452   1.368       .  A
C443        C444   1.383       .  A
C444        S450   1.721       .  A
C444        C445   1.412       .  A
C445        C446   1.413       .  A
C445        H454   1.083       .  S
C446        C449   1.382       .  A
S447        C448   1.721       .  A
C448        C449   1.394       .  A
C449        H455   1.083       .  S
S450        C451   1.733       .  A
C451        C452   1.392       .  A
C452        H456   1.083       .  S
C457        S463   1.714       .  A
C457        C462   1.386       .  A
C457        C458   1.415       .  A
C458        C459   1.412       .  A
C458        H469   1.083       .  S
C459        C468   1.392       .  A
C459        C460   1.384       .  A
C460        S466   1.706       .  A
C460        C461   1.410       .  A
C461        C462   1.407       .  A
C461        H470   1.083       .  S
C462        C465   1.387       .  A
S463        C464   1.732       .  A
C464        C465   1.393       .  A
C465        H471   1.083       .  S
S466        C467   1.738       .  A
C467        C468   1.400       .  A
C468        H472   1.082       .  S
C473        S479   1.711       .  A
C473        C478   1.386       .  A
C473        C474   1.402       .  A
C474        C475   1.404       .  A
C474        H485   1.083       .  S
C475        C484   1.370       .  A
C475        C476   1.383       .  A
C476        S482   1.717       .  A
C476        C477   1.408       .  A
C477        C478   1.410       .  A
C477        H486   1.083       .  S
C478        C481   1.377       .  A
S479        C480   1.722       .  A
C480        C481   1.392       .  A
C481        H487   1.083       .  S
S482        C483   1.731       .  A
C483        C484   1.395       .  A
C484        H488   1.081       .  S
C489        S495   1.697       .  A
C489        C494   1.385       .  A
C489        C490   1.402       .  A
C490        C491   1.400       .  A
C490        H501   1.083       .  S
C491        C500   1.375       .  A
C491        C492   1.386       .  A
C492        S498   1.716       .  A
C492        C493   1.413       .  A
C493        C494   1.412       .  A
C493        H502   1.083       .  S
C494        C497   1.388       .  A
S495        C496   1.729       .  A
C496        C497   1.396       .  A
C497        H503   1.082   1_565  S
S498        C499   1.730       .  A
C499        C500   1.386       .  A
C500        H504   1.083       .  S
C505        S511   1.719       .  A
C505        C510   1.385       .  A
C505        C506   1.411       .  A
C506        C507   1.410   1_565  A
C506        H517   1.083       .  S
C507        C516   1.385       .  A
C507        C508   1.384       .  A
C508        S514   1.721       .  A
C508        C509   1.415       .  A
C509        C510   1.415   1_545  A
C509        H518   1.083       .  S
C510        C513   1.389       .  A
S511        C512   1.727       .  A
C512        C513   1.399       .  A
C513        H519   1.083       .  S
S514        C515   1.736       .  A
C515        C516   1.397       .  A
C516        H520   1.083       .  S
C521        S527   1.714       .  A
C521        C526   1.387       .  A
C521        C522   1.404       .  A
C522        C523   1.406       .  A
C522        H533   1.083       .  S
C523        C532   1.369       .  A
C523        C524   1.388       .  A
C524        S530   1.701       .  A
C524        C525   1.392       .  A
C525        C526   1.395       .  A
C525        H534   1.083       .  S
C526        C529   1.358       .  A
S527        C528   1.723       .  A
C528        C529   1.378       .  A
C529        H535   1.084       .  S
S530        C531   1.713       .  A
C531        C532   1.387       .  A
C532        H536   1.083       .  S
C537        S543   1.704       .  A
C537        C542   1.386       .  A
C537        C538   1.400       .  A
C538        C539   1.401       .  A
C538        H549   1.083       .  S
C539        C548   1.368       .  A
C539        C540   1.387       .  A
C540        S546   1.712       .  A
C540        C541   1.404       .  A
C541        C542   1.405       .  A
C541        H550   1.083       .  S
C542        C545   1.373       .  A
S543        C544   1.724       .  A
C544        C545   1.390       .  A
C545        H551   1.082       .  S
S546        C547   1.721       .  A
C547        C548   1.384       .  A
C548        H552   1.083       .  S
C553        S559   1.716       .  A
C553        C558   1.386       .  A
C553        C554   1.408       .  A
C554        C555   1.409       .  A
C554        H565   1.083       .  S
C555        C564   1.375       .  A
C555        C556   1.387       .  A
C556        S562   1.699       .  A
C556        C557   1.393       .  A
C557        C558   1.395       .  A
C557        H566   1.083   1_565  S
C558        C561   1.361       .  A
S559        C560   1.726       .  A
C560        C561   1.383       .  A
C561        H567   1.083   1_565  S
S562        C563   1.719       .  A
C563        C564   1.392       .  A
C564        H568   1.083       .  S
C569        S575   1.712       .  A
C569        C574   1.384       .  A
C569        C570   1.407       .  A
C570        C571   1.407       .  A
C570        H581   1.083       .  S
C571        C580   1.378       .  A
C571        C572   1.387       .  A
C572        S578   1.702   1_565  A
C572        C573   1.400       .  A
C573        C574   1.401       .  A
C573        H582   1.083   1_565  S
C574        C577   1.369       .  A
S575        C576   1.730       .  A
C576        C577   1.393       .  A
C577        H583   1.080       .  S
S578        C579   1.724   1_545  A
C579        C580   1.387       .  A
C580        H584   1.083       .  S
C585        S591   1.720       .  A
C585        C590   1.383       .  A
C585        C586   1.414       .  A
C586        C587   1.413       .  A
C586        H597   1.082       .  S
C587        C596   1.389       .  A
C587        C588   1.385       .  A
C588        S594   1.707       .  A
C588        C589   1.406       .  A
C589        C590   1.406       .  A
C589        H598   1.083       .  S
C590        C593   1.379       .  A
S591        C592   1.734       .  A
C592        C593   1.396       .  A
C593        H599   1.080       .  S
S594        C595   1.731       .  A
C595        C596   1.398       .  A
C596        H600   1.082       .  S
C601        S607   1.724   1_545  A
C601        C606   1.381       .  A
C601        C602   1.415       .  A
C602        C603   1.416       .  A
C602        H613   1.083       .  S
C603        C612   1.385       .  A
C603        C604   1.385       .  A
C604        S610   1.715       .  A
C604        C605   1.405       .  A
C605        C606   1.407       .  A
C605        H614   1.083       .  S
C606        C609   1.375       .  A
S607        C608   1.737       .  A
C608        C609   1.401   1_565  A
C609        H615   1.077       .  S
S610        C611   1.724       .  A
C611        C612   1.398       .  A
C612        H616   1.083       .  S
C617        S623   1.720       .  A
C617        C622   1.385       .  A
C617        C618   1.410       .  A
C618        C619   1.412       .  A
C618        H629   1.083       .  S
C619        C628   1.379       .  A
C619        C620   1.383       .  A
C620        S626   1.713       .  A
C620        C621   1.406       .  A
C621        C622   1.407       .  A
C621        H630   1.083       .  S
C622        C625   1.377       .  A
S623        C624   1.730       .  A
C624        C625   1.391       .  A
C625        H631   1.083       .  S
S626        C627   1.730       .  A
C627        C628   1.402       .  A
C628        H632   1.080       .  S
C633        S639   1.699       .  A
C633        C638   1.388       .  A
C633        C634   1.392       .  A
C634        C635   1.395       .  A
C634        H645   1.086       .  S
C635        C644   1.358       .  A
C635        C636   1.384       .  A
C636        S642   1.727       .  A
C636        C637   1.414       .  A
C637        C638   1.416       .  A
C637        H646   1.083       .  S
C638        C641   1.383       .  A
S639        C640   1.716       .  A
C640        C641   1.394       .  A
C641        H647   1.083       .  S
S642        C643   1.733       .  A
C643        C644   1.379       .  A
C644        H648   1.087       .  S
C649        S655   1.701       .  A
C649        C654   1.386       .  A
C649        C650   1.400       .  A
C650        C651   1.400       .  A
C650        H661   1.083       .  S
C651        C660   1.370       .  A
C651        C652   1.386       .  A
C652        S658   1.715       .  A
C652        C653   1.409       .  A
C653        C654   1.408       .  A
C653        H662   1.083       .  S
C654        C657   1.379       .  A
S655        C656   1.727       .  A
C656        C657   1.393       .  A
C657        H663   1.082       .  S
S658        C659   1.725       .  A
C659        C660   1.384       .  A
C660        H664   1.083       .  S
C665        S671   1.727       .  A
C665        C670   1.385       .  A
C665        C666   1.418       .  A
C666        C667   1.418       .  A
C666        H677   1.083       .  S
C667        C676   1.391       .  A
C667        C668   1.386       .  A
C668        S674   1.705       .  A
C668        C669   1.402       .  A
C669        C670   1.402       .  A
C669        H678   1.083       .  S
C670        C673   1.375       .  A
S671        C672   1.734       .  A
C672        C673   1.388       .  A
C673        H679   1.083       .  S
S674        C675   1.721       .  A
C675        C676   1.400       .  A
C676        H680   1.083       .  S
C681        S687   1.730       .  A
C681        C686   1.383       .  A
C681        C682   1.415       .  A
C682        C683   1.418       .  A
C682        H693   1.083       .  S
C683        C692   1.385       .  A
C683        C684   1.385       .  A
C684        S690   1.717       .  A
C684        C685   1.404       .  A
C685        C686   1.406       .  A
C685        H694   1.083       .  S
C686        C689   1.372   1_565  A
S687        C688   1.733   1_565  A
C688        C689   1.397       .  A
C689        H695   1.083       .  S
S690        C691   1.723       .  A
C691        C692   1.399       .  A
C692        H696   1.083       .  S
C697        S703   1.697       .  A
C697        C702   1.385       .  A
C697        C698   1.394       .  A
C698        C699   1.396       .  A
C698        H709   1.083       .  S
C699        C708   1.358       .  A
C699        C700   1.387       .  A
C700        S706   1.710       .  A
C700        C701   1.401       .  A
C701        C702   1.404       .  A
C701        H710   1.083       .  S
C702        C705   1.368       .  A
S703        C704   1.725       .  A
C704        C705   1.390       .  A
C705        H711   1.080       .  S
S706        C707   1.718       .  A
C707        C708   1.382       .  A
C708        H712   1.084       .  S
C713        S719   1.707       .  A
C713        C718   1.385       .  A
C713        C714   1.401       .  A
C714        C715   1.402       .  A
C714        H725   1.083       .  S
C715        C724   1.372       .  A
C715        C716   1.387       .  A
C716        S722   1.712       .  A
C716        C717   1.406       .  A
C717        C718   1.407       .  A
C717        H726   1.083       .  S
C718        C721   1.376       .  A
S719        C720   1.725       .  A
C720        C721   1.395       .  A
C721        H727   1.081       .  S
S722        C723   1.723       .  A
C723        C724   1.383       .  A
C724        H728   1.083       .  S
C729        S735   1.718       .  A
C729        C734   1.385       .  A
C729        C730   1.407       .  A
C730        C731   1.409       .  A
C730        H741   1.083       .  S
C731        C740   1.378       .  A
C731        C732   1.386       .  A
C732        S738   1.718       .  A
C732        C733   1.408       .  A
C733        C734   1.409       .  A
C733        H742   1.083   1_554  S
C734        C737   1.376   1_554  A
S735        C736   1.728   1_554  A
C736        C737   1.396       .  A
C737        H743   1.083       .  S
S738        C739   1.726       .  A
C739        C740   1.392       .  A
C740        H744   1.083       .  S
C745        S751   1.709       .  A
C745        C750   1.386       .  A
C745        C746   1.409       .  A
C746        C747   1.407       .  A
C746        H757   1.083       .  S
C747        C756   1.382       .  A
C747        C748   1.387       .  A
C748        S754   1.693       .  A
C748        C749   1.397       .  A
C749        C750   1.396       .  A
C749        H758   1.083       .  S
C750        C753   1.369       .  A
S751        C752   1.730       .  A
C752        C753   1.384       .  A
C753        H759   1.083       .  S
S754        C755   1.724       .  A
C755        C756   1.389       .  A
C756        H760   1.083       .  S
C761        S767   1.688   1_455  A
C761        C766   1.387       .  A
C761        C762   1.389       .  A
C762        C763   1.390       .  A
C762        H773   1.083   1_455  S
C763        C772   1.359       .  A
C763        C764   1.386       .  A
C764        S770   1.718       .  A
C764        C765   1.412       .  A
C765        C766   1.412       .  A
C765        H774   1.083       .  S
C766        C769   1.382       .  A
S767        C768   1.720   1_655  A
C768        C769   1.394       .  A
C769        H775   1.082       .  S
S770        C771   1.730       .  A
C771        C772   1.378       .  A
C772        H776   1.083       .  S
C777        S783   1.726       .  A
C777        C782   1.385       .  A
C777        C778   1.414   1_554  A
C778        C779   1.415       .  A
C778        H789   1.083       .  S
C779        C788   1.383       .  A
C779        C780   1.384   1_556  A
C780        S786   1.721   1_655  A
C780        C781   1.409       .  A
C781        C782   1.411       .  A
C781        H790   1.083       .  S
C782        C785   1.381       .  A
S783        C784   1.731       .  A
C784        C785   1.395       .  A
C785        H791   1.083       .  S
S786        C787   1.729   1_554  A
C787        C788   1.401   1_455  A
C788        H792   1.083       .  S
C793        S799   1.724       .  A
C793        C798   1.383       .  A
C793        C794   1.415       .  A
C794        C795   1.415       .  A
C794        H805   1.082       .  S
C795        C804   1.386       .  A
C795        C796   1.385       .  A
C796        S802   1.700       .  A
C796        C797   1.398       .  A
C797        C798   1.400       .  A
C797        H806   1.083       .  S
C798        C801   1.368       .  A
S799        C800   1.734       .  A
C800        C801   1.392       .  A
C801        H807   1.080       .  S
S802        C803   1.726       .  A
C803        C804   1.399       .  A
C804        H808   1.082       .  S
C809        S815   1.704       .  A
C809        C814   1.388       .  A
C809        C810   1.399       .  A
C810        C811   1.400       .  A
C810        H821   1.083       .  S
C811        C820   1.369       .  A
C811        C812   1.385       .  A
C812        S818   1.718       .  A
C812        C813   1.411       .  A
C813        C814   1.411       .  A
C813        H822   1.083       .  S
C814        C817   1.381       .  A
S815        C816   1.717       .  A
C816        C817   1.390       .  A
C817        H823   1.083       .  S
S818        C819   1.728       .  A
C819        C820   1.388       .  A
C820        H824   1.083       .  S
C825        S831   1.708       .  A
C825        C830   1.385       .  A
C825        C826   1.400       .  A
C826        C827   1.402       .  A
C826        H837   1.083       .  S
C827        C836   1.368       .  A
C827        C828   1.385       .  A
C828        S834   1.722       .  A
C828        C829   1.410       .  A
C829        C830   1.412       .  A
C829        H838   1.083       .  S
C830        C833   1.377       .  A
S831        C832   1.724       .  A
C832        C833   1.395       .  A
C833        H839   1.082       .  S
S834        C835   1.727       .  A
C835        C836   1.389       .  A
C836        H840   1.083       .  S
C841        S847   1.713       .  A
C841        C846   1.386       .  A
C841        C842   1.404       .  A
C842        C843   1.406       .  A
C842        H853   1.083       .  S
C843        C852   1.373       .  A
C843        C844   1.384       .  A
C844        S850   1.727       .  A
C844        C845   1.414       .  A
C845        C846   1.415       .  A
C845        H854   1.083       .  S
C846        C849   1.385       .  A
S847        C848   1.723       .  A
C848        C849   1.396       .  A
C849        H855   1.083       .  S
S850        C851   1.732       .  A
C851        C852   1.395       .  A
C852        H856   1.083   1_455  S
C857        S863   1.725       .  A
C857        C862   1.384       .  A
C857        C858   1.415       .  A
C858        C859   1.416       .  A
C858        H869   1.083       .  S
C859        C868   1.387       .  A
C859        C860   1.385       .  A
C860        S866   1.716       .  A
C860        C861   1.407       .  A
C861        C862   1.408       .  A
C861        H870   1.083       .  S
C862        C865   1.379       .  A
S863        C864   1.732       .  A
C864        C865   1.392       .  A
C865        H871   1.081       .  S
S866        C867   1.725       .  A
C867        C868   1.399       .  A
C868        H872   1.083       .  S
C873        S879   1.709       .  A
C873        C878   1.387       .  A
C873        C874   1.410       .  A
C874        C875   1.408       .  A
C874        H885   1.083       .  S
C875        C884   1.383       .  A
C875        C876   1.384       .  A
C876        S882   1.703       .  A
C876        C877   1.404       .  A
C877        C878   1.403       .  A
C877        H886   1.083       .  S
C878        C881   1.379       .  A
S879        C880   1.730       .  A
C880        C881   1.386       .  A
C881        H887   1.083       .  S
S882        C883   1.729       .  A
C883        C884   1.397       .  A
C884        H888   1.082       .  S
C889        S895   1.714       .  A
C889        C894   1.384       .  A
C889        C890   1.411       .  A
C890        C891   1.410       .  A
C890        H901   1.083       .  S
C891        C900   1.385       .  A
C891        C892   1.387       .  A
C892        S898   1.705       .  A
C892        C893   1.404       .  A
C893        C894   1.403       .  A
C893        H902   1.083       .  S
C894        C897   1.377       .  A
S895        C896   1.732       .  A
C896        C897   1.392       .  A
C897        H903   1.082       .  S
S898        C899   1.725       .  A
C899        C900   1.391       .  A
C900        H904   1.083       .  S
C905        S911   1.710       .  A
C905        C910   1.386       .  A
C905        C906   1.404       .  A
C906        C907   1.404       .  A
C906        H917   1.083       .  S
C907        C916   1.374       .  A
C907        C908   1.386       .  A
C908        S914   1.720       .  A
C908        C909   1.411       .  A
C909        C910   1.412       .  A
C909        H918   1.083       .  S
C910        C913   1.383   1_565  A
S911        C912   1.725   1_565  A
C912        C913   1.396       .  A
C913        H919   1.082       .  S
S914        C915   1.728       .  A
C915        C916   1.388       .  A
C916        H920   1.083       .  S
C921        S927   1.708   1_455  A
C921        C926   1.384       .  A
C921        C922   1.406       .  A
C922        C923   1.405       .  A
C922        H933   1.083       .  S
C923        C932   1.380       .  A
C923        C924   1.386       .  A
C924        S930   1.719       .  A
C924        C925   1.413       .  A
C925        C926   1.413       .  A
C925        H934   1.083       .  S
C926        C929   1.385   1_455  A
S927        C928   1.731       .  A
C928        C929   1.401       .  A
C929        H935   1.081       .  S
S930        C931   1.732       .  A
C931        C932   1.390       .  A
C932        H936   1.083       .  S
C937        S943   1.712       .  A
C937        C942   1.386       .  A
C937        C938   1.405       .  A
C938        C939   1.406       .  A
C938        H949   1.083       .  S
C939        C948   1.374       .  A
C939        C940   1.388       .  A
C940        S946   1.704       .  A
C940        C941   1.399       .  A
C941        C942   1.400       .  A
C941        H950   1.083       .  S
C942        C945   1.367       .  A
S943        C944   1.724       .  A
C944        C945   1.388       .  A
C945        H951   1.083       .  S
S946        C947   1.718       .  A
C947        C948   1.385       .  A
C948        H952   1.083       .  S
C953        S959   1.717       .  A
C953        C958   1.385       .  A
C953        C954   1.404       .  A
C954        C955   1.406       .  A
C954        H965   1.083       .  S
C955        C964   1.369       .  A
C955        C956   1.385       .  A
C956        S962   1.707       .  A
C956        C957   1.398       .  A
C957        C958   1.402       .  A
C957        H966   1.083       .  S
C958        C961   1.363       .  A
S959        C960   1.723       .  A
C960        C961   1.389       .  A
C961        H967   1.083       .  S
S962        C963   1.724       .  A
C963        C964   1.391       .  A
C964        H968   1.081       .  S
C969        S975   1.706       .  A
C969        C974   1.387       .  A
C969        C970   1.402       .  A
C970        C971   1.402       .  A
C970        H981   1.083       .  S
C971        C980   1.375       .  A
C971        C972   1.385       .  A
C972        S978   1.712       .  A
C972        C973   1.411       .  A
C973        C974   1.410       .  A
C973        H982   1.083       .  S
C974        C977   1.383       .  A
S975        C976   1.722       .  A
C976        C977   1.393       .  A
C977        H983   1.083       .  S
S978        C979   1.733       .  A
C979        C980   1.390       .  A
C980        H984   1.082       .  S
C985        S991   1.707       .  A
C985        C990   1.383       .  A
C985        C986   1.405       .  A
C986        C987   1.406       .  A
C986        H997   1.083       .  S
C987        C996   1.375       .  A
C987        C988   1.386       .  A
C988        S994   1.710       .  A
C988        C989   1.402       .  A
C989        C990   1.404       .  A
C989        H998   1.083       .  S
C990        C993   1.372       .  A
S991        C992   1.734       .  A
C992        C993   1.395       .  A
C993        H999   1.080       .  S
S994        C995   1.723       .  A
C995        C996   1.389       .  A
C996       H1000   1.083       .  S
