geometry optimzed in LAMMPS
_audit_creation_date              2020-12-01 
_audit_creation_method            'lammps2cif' 
_symmetry_space_group_name_H-M    'P1' 
_symmetry_Int_Tables_number       1 
_symmetry_cell_setting            triclinic 
loop_ 
_symmetry_equiv_pos_as_xyz 
  x,y,z 
_cell_length_a                    36.91700339 
_cell_length_b                    37.132117927668844 
_cell_length_c                    39.137120965962076 
_cell_angle_alpha                 90.2214297915829 
_cell_angle_beta                  90.04251651186951 
_cell_angle_gamma                 90.79216122216562 
loop_ 
_atom_site_label 
_atom_site_type_symbol 
_atom_site_fract_x 
_atom_site_fract_y 
_atom_site_fract_z 
_atom_site_charge 
N1          N  0.00689214  0.75879511  0.33158463    -0.03300
C2          C  0.99470042  0.72460589  0.32648125    -0.00700
C3          C  0.98429640  0.70926565  0.02385286    -0.23600
C4          C  0.99037463  0.73475725  0.04877272    -0.23800
C5          C  0.00444655  0.76459653  0.03237310    -0.00800
H6          H  0.97517356  0.68177837  0.02788086     0.13000
H7          H  0.98574505  0.73167993  0.07591490     0.13000
N8          N  0.09673456  0.23042232  0.03644822    -0.03300
C9          C  0.10316823  0.26603563  0.04086811    -0.00700
C10         C  0.11589873  0.28149100  0.01108047    -0.23600
C11         C  0.11747832  0.25432387  0.32059575    -0.23800
C12         C  0.10545915  0.22341693  0.00349414    -0.00800
H13         H  0.12184441  0.30972614  0.34007546     0.13000
H14         H  0.12525798  0.25704720  0.29406721     0.13000
N15         N  0.78696378  0.94583278  0.32471619    -0.03300
C16         C  0.82255196  0.93846609  0.32089803    -0.00700
C17         C  0.83670780  0.92475328  0.01752197    -0.23600
C18         C  0.80876292  0.92325632  0.04058671    -0.23800
C19         C  0.77863357  0.93612949  0.02388289    -0.00800
H20         H  0.86462988  0.91783448  0.02234452     0.13000
H21         H  0.81060763  0.91513609  0.06704622     0.13000
N22         N  0.31900797  0.04744604  0.02888734    -0.03300
C23         C  0.28592500  0.06165128  0.03452883    -0.00700
C24         C  0.27404139  0.07952203  0.00579814    -0.23600
C25         C  0.30057014  0.07613439  0.31490301    -0.23800
C26         C  0.32778657  0.05600460  0.99620280    -0.00800
H27         H  0.24784979  0.09166222  0.00209653     0.13000
H28         H  0.29951013  0.08593468  0.28892568     0.13000
N29         N  0.58699184  0.72792943  0.32838844    -0.03300
C30         C  0.59979755  0.76166844  0.32252382    -0.00700
C31         C  0.61151729  0.77745603  0.01929920    -0.23600
C32         C  0.60565222  0.75258603  0.04464381    -0.23800
C33         C  0.59061577  0.72252411  0.02898751    -0.00800
H34         H  0.62122779  0.80486500  0.02277114     0.13000
H35         H  0.61121471  0.75619747  0.07160439     0.13000
N36         N  0.50823153  0.25571696  0.02912676    -0.03300
C37         C  0.50288063  0.21982565  0.03262160    -0.00700
C38         C  0.49164122  0.20451418  0.00209538    -0.23600
C39         C  0.48937799  0.23207829  0.31211764    -0.23800
C40         C  0.49957537  0.26306852  0.99631280    -0.00800
H41         H  0.48662003  0.17620464  0.99703056     0.13000
H42         H  0.48235859  0.22965470  0.28534568     0.13000
N43         N  0.27377131  0.44143403  0.03307551    -0.03300
C44         C  0.30746552  0.42871116  0.03858843    -0.00700
C45         C  0.32142206  0.41413882  0.00891759    -0.23600
C46         C  0.29556986  0.41849222  0.31732908    -0.23800
C47         C  0.26682811  0.43533149  0.99948519    -0.00800
H48         H  0.34844744  0.40420764  0.33839224     0.13000
H49         H  0.29813765  0.41133629  0.29061686     0.13000
N50         N  0.80429673  0.53911992  0.33140407    -0.03300
C51         C  0.76923838  0.54836185  0.32668972    -0.00700
C52         C  0.75270540  0.55467642  0.02443768    -0.23600
C53         C  0.77837387  0.54915372  0.04922649    -0.23800
C54         C  0.80963148  0.53979449  0.03232301    -0.00800
H55         H  0.72440246  0.56042568  0.02874416     0.13000
H56         H  0.77444574  0.55079850  0.07658410     0.13000
Zr57       Zr  0.58812734  0.54828859  0.17732269     2.17500
O58         O  0.64524221  0.56988756  0.15304036    -0.51100
O59         O  0.57888733  0.60004029  0.21485135    -0.74400
O60         O  0.57917743  0.59249266  0.13270424    -0.81100
O61         O  0.63879580  0.49060814  0.24107440    -0.82900
O62         O  0.52864639  0.57757970  0.10193932    -0.78500
O63         O  0.64194082  0.54399676  0.21283825    -0.90100
O64         O  0.52768650  0.59003254  0.24545027    -0.76100
O65         O  0.52436993  0.55693403  0.17562142    -0.85600
O66         O  0.56521659  0.52421169  0.22928031    -0.85300
O67         O  0.56709635  0.51601721  0.12754756    -0.72000
O68         O  0.60507976  0.48608380  0.17713309    -0.84200
Zr69       Zr  0.49552398  0.43764727  0.17895764     2.26400
Zr70       Zr  0.50265436  0.52354083  0.12707856     2.06300
Zr71       Zr  0.58071929  0.46209425  0.22890551     2.10000
Zr72       Zr  0.50165723  0.53260193  0.22752506     1.78800
O73         O  0.62442563  0.41358579  0.22887127    -0.93000
O74         O  0.45449100  0.57618537  0.21595955    -0.40800
O75         O  0.51663492  0.47001109  0.22846007    -0.77400
O76         O  0.47860014  0.49990344  0.17920948    -0.96100
O77         O  0.51841546  0.46143561  0.12685932    -0.89400
O78         O  0.55925361  0.42913673  0.18033796    -0.92300
C79         C  0.55576038  0.60910302  0.23777574     1.01500
C80         C  0.65475578  0.52041175  0.23334807     1.14400
C81         C  0.55650742  0.59747166  0.10839092     1.05200
O82         O  0.45534499  0.56856220  0.12544552    -0.94400
O83         O  0.44508876  0.49386793  0.11346724    -0.90200
O84         O  0.44273077  0.44102816  0.14242719    -0.83300
C85         C  0.42939595  0.46398364  0.12169269     1.11800
O86         O  0.63753362  0.47432833  0.10034858    -0.96400
Zr87       Zr  0.58218104  0.45353208  0.12851567     1.88900
O88         O  0.50496653  0.38581536  0.14135584    -0.73000
O89         O  0.50355487  0.51312476  0.06556958    -0.52300
O90         O  0.57445693  0.45616310  0.06671708    -0.97000
O91         O  0.63202718  0.41246498  0.13846834    -0.50600
O92         O  0.55734640  0.39505511  0.11196728    -0.73500
C93         C  0.52891682  0.37633116  0.11929638     0.98800
O94         O  0.43901119  0.41785609  0.20618534    -0.62400
O95         O  0.58303038  0.47034519  0.29073345    -0.57200
O96         O  0.50361005  0.39354446  0.22373957    -0.93900
O97         O  0.55182583  0.41101409  0.25620570    -0.92300
O98         O  0.50667447  0.52936587  0.28951918    -0.92600
O99         O  0.44471877  0.51397357  0.25393766    -0.91400
C100        C  0.52492453  0.38998311  0.24939905     1.17600
H101        H  0.57587209  0.53620835  0.24883333     0.33600
H102        H  0.45256912  0.50179088  0.17948042     0.44400
H103        H  0.56495753  0.40394495  0.18241283     0.38000
H104        H  0.57774761  0.52630417  0.10724565     0.34400
H105        H  0.44765420  0.58568216  0.23869488     0.26200
H106        H  0.48992043  0.53340669  0.05577391     0.32200
H107        H  0.58366576  0.43294288  0.05803499     0.38100
H108        H  0.49817517  0.55296991  0.29793366     0.32500
H109        H  0.60269722  0.45445816  0.29848790     0.31400
H110        H  0.63205544  0.41142073  0.25302549     0.33100
H111        H  0.62103275  0.39146528  0.15025566     0.32100
H112        H  0.44683815  0.48761729  0.25689831     0.36100
H113        H  0.44329775  0.41989548  0.23109099     0.28800
H114        H  0.64517560  0.59639365  0.15591136     0.33000
H115        H  0.64493778  0.45433521  0.08518139     0.35900
H116        H  0.59268359  0.49505649  0.29443977     0.28500
H117        H  0.42132219  0.43709946  0.20174243     0.41400
H118        H  0.43883369  0.56199472  0.14441813     0.31400
H119        H  0.46717948  0.59660460  0.20472142     0.39000
H120        H  0.64707689  0.42454297  0.15617496     0.30900
H121        H  0.52899048  0.51774965  0.05865984     0.30900
H122        H  0.64318759  0.56573822  0.12809457     0.31200
Zr123      Zr  0.60314884  0.94131802  0.17558166     2.17500
O124        O  0.62109989  0.88301646  0.15279823    -0.51100
O125        O  0.65629473  0.94785985  0.21249757    -0.74400
O126        O  0.64699675  0.94729011  0.12981773    -0.81100
O127        O  0.54418825  0.89520501  0.24212631    -0.82900
O128        O  0.63542786  0.99781986  0.09952339    -0.78500
O129        O  0.59502469  0.88793807  0.21027540    -0.90100
O130        O  0.65169381  0.00097112  0.24094489    -0.76100
O131        O  0.61648606  0.00416822  0.17263322    -0.85600
O132        O  0.58219466  0.96600277  0.22793508    -0.85300
O133        O  0.57085925  0.96210393  0.12613735    -0.72000
O134        O  0.53947330  0.92740363  0.17726932    -0.84200
Zr135      Zr  0.49848616  0.03771687  0.17822264     2.26400
Zr136      Zr  0.58284108  0.02573707  0.12460629     2.06300
Zr137      Zr  0.51861231  0.95356470  0.22951122     2.10000
Zr138      Zr  0.59491630  0.02868365  0.22484374     1.78800
O139        O  0.46884637  0.91003986  0.23325239    -0.93000
O140        O  0.64012665  0.07487704  0.21139309    -0.40800
O141        O  0.53087400  0.01692116  0.22745387    -0.77400
O142        O  0.56225177  0.05180363  0.17698725    -0.96100
O143        O  0.51932726  0.01296577  0.12577246    -0.89400
O144        O  0.48565251  0.97482135  0.18115964    -0.92300
C145        C  0.66799283  0.97150415  0.23408214     1.01500
C146        C  0.57182612  0.87714499  0.23252295     1.14400
C147        C  0.65356651  0.96927985  0.10530495     1.05200
O148        O  0.62936459  0.07236637  0.11806625    -0.94400
O149        O  0.55571358  0.08317102  0.11076901    -0.90200
O150        O  0.50487641  0.09071966  0.14243923    -0.83300
C151        C  0.52803627  0.10139949  0.12009451     1.11800
O152        O  0.51863946  0.89125451  0.10354068    -0.96400
Zr153      Zr  0.50699497  0.95005619  0.12897264     1.88900
O154        O  0.44612495  0.03088661  0.14051668    -0.73000
O155        O  0.57282882  0.02284429  0.06306389    -0.52300
O156        O  0.51093872  0.95219920  0.06678848    -0.97000
O157        O  0.45931676  0.90635241  0.14262523    -0.54200
O158        O  0.45186463  0.97904065  0.11041320    -0.73500
C159        C  0.43495392  0.00794326  0.11802531     0.98800
O160        O  0.48207086  0.09345596  0.20744362    -0.62400
O161        O  0.52795934  0.95306761  0.29121179    -0.57200
O162        O  0.45189885  0.02952982  0.22120621    -0.93900
O163        O  0.46989274  0.98546191  0.25754560    -0.92300
O164        O  0.59144703  0.02406571  0.28685456    -0.92600
O165        O  0.58465270  0.08624009  0.25302292    -0.91400
C166        C  0.44877125  0.01089237  0.24859254     1.17600
H167        H  0.59414311  0.95520860  0.24725892     0.33600
H168        H  0.56601135  0.07758131  0.17675965     0.44400
H169        H  0.46003891  0.97018092  0.18383586     0.38000
H170        H  0.58002399  0.95065307  0.10575075     0.34400
H171        H  0.65543995  0.07677878  0.23212110     0.26200
H172        H  0.59304975  0.03712670  0.05312861     0.32200
H173        H  0.48664989  0.94456790  0.05851786     0.38100
H174        H  0.61531929  0.03286663  0.29520683     0.32500
H175        H  0.51818090  0.92947029  0.29881606     0.31400
H176        H  0.46255410  0.90931878  0.25782998     0.33100
H177        H  0.43731242  0.92063446  0.14683987     0.32100
H178        H  0.55887890  0.09145124  0.24844382     0.36100
H179        H  0.48323625  0.08802536  0.23215945     0.28800
H180        H  0.64785066  0.88263599  0.15460642     0.33000
H181        H  0.49678825  0.88500963  0.08994456     0.35900
H182        H  0.55444646  0.95132610  0.29455900     0.28500
H183        H  0.50288123  0.11015224  0.20392226     0.41400
H184        H  0.62533376  0.08922144  0.13730618     0.31400
H185        H  0.65597162  0.06362952  0.19409228     0.39000
H186        H  0.46604091  0.89693272  0.16534653     0.30900
H187        H  0.57800140  0.99765103  0.05651825     0.30900
H188        H  0.61594335  0.88397458  0.12798545     0.31200
Zr189      Zr  0.00975103  0.93993596  0.18258931     2.17500
O190        O  0.95121096  0.91706410  0.16245162    -0.51100
O191        O  0.01722109  0.88842860  0.22102309    -0.74400
O192        O  0.01534292  0.89665514  0.13628119    -0.81100
O193        O  0.96072760  0.00069222  0.24518154    -0.82900
O194        O  0.06787785  0.90736735  0.10747631    -0.78500
O195        O  0.95501535  0.94839333  0.21529121    -0.90100
O196        O  0.06961113  0.89728676  0.25008911    -0.76100
O197        O  0.07309708  0.92918108  0.17970743    -0.85600
O198        O  0.03422353  0.96357536  0.23441526    -0.85300
O199        O  0.03014990  0.97180387  0.13251120    -0.72000
O200        O  0.99497765  0.00279698  0.18275232    -0.84200
Zr201      Zr  0.10570656  0.04767399  0.18312884     2.26400
Zr202      Zr  0.09431578  0.96209707  0.13081821     2.06300
Zr203      Zr  0.02066050  0.02622069  0.23444414     2.10000
Zr204      Zr  0.09751334  0.95330713  0.23129223     1.78800
O205        O  0.97858954  0.07593815  0.23926947    -0.93000
O206        O  0.14375583  0.90897164  0.21888781    -0.40800
O207        O  0.08449064  0.01635829  0.23293657    -0.77400
O208        O  0.12054648  0.98492102  0.18251638    -0.96100
O209        O  0.08089765  0.02470330  0.13139448    -0.89400
O210        O  0.04237512  0.05852846  0.18583517    -0.92300
C211        C  0.04073177  0.87897817  0.24349305     1.01500
C212        C  0.94304137  0.97216141  0.23611283     1.14400
C213        C  0.03844150  0.88960107  0.11281396     1.05200
O214        O  0.14190130  0.91761710  0.12607570    -0.94400
O215        O  0.15088318  0.99159421  0.11386211    -0.90200
O216        O  0.15609370  0.04406667  0.14370616    -0.83300
C217        C  0.16733953  0.02132112  0.12145842     1.11800
O218        O  0.96279812  0.01861534  0.10280647    -0.96400
Zr219      Zr  0.01770480  0.03510202  0.13419351     1.88900
O220        O  0.09764023  0.09977778  0.14610609    -0.73000
O221        O  0.08948032  0.97108990  0.06933013    -0.52300
O222        O  0.02872686  0.03499091  0.07277016    -0.97000
O223        O  0.96754784  0.07524932  0.14625155    -0.54200
O224        O  0.04260204  0.09424383  0.12036002    -0.73500
C225        C  0.07252816  0.11117924  0.12621986     0.98800
O226        O  0.16382747  0.06236570  0.20997462    -0.62400
O227        O  0.01935900  0.01446019  0.29562843    -0.57200
O228        O  0.10014489  0.09285430  0.22757235    -0.93900
O229        O  0.05174454  0.07740741  0.26047817    -0.92300
O230        O  0.09566004  0.95732476  0.29341903    -0.92600
O231        O  0.15599324  0.96808571  0.25693647    -0.91400
C232        C  0.07936549  0.09746243  0.25346362     1.17600
H233        H  0.02349149  0.95216606  0.25419510     0.33600
H234        H  0.14649727  0.98220905  0.18192729     0.44400
H235        H  0.03752447  0.08388774  0.18828283     0.38000
H236        H  0.01869408  0.96187154  0.11234365     0.34400
H237        H  0.14418183  0.89329727  0.23929362     0.26200
H238        H  0.10484009  0.95224240  0.05911223     0.32200
H239        H  0.01926240  0.05821288  0.06449869     0.38100
H240        H  0.10514574  0.93404453  0.30149517     0.32500
H241        H  0.04471611  0.01810108  0.30327264     0.31400
H242        H  0.97028384  0.07535043  0.26331108     0.33100
H243        H  0.97879852  0.09677851  0.15712695     0.32100
H244        H  0.15834210  0.99456346  0.25476424     0.36100
H245        H  0.15945716  0.06021404  0.23483986     0.28800
H246        H  0.95278101  0.89044719  0.16267410     0.33000
H247        H  0.95716478  0.03973514  0.08847066     0.35900
H248        H  0.00614553  0.03500824  0.30560175     0.28500
H249        H  0.17956402  0.04166658  0.20478168     0.41400
H250        H  0.14423112  0.91305167  0.10124345     0.31400
H251        H  0.13319590  0.89355578  0.20063863     0.39000
H252        H  0.95391591  0.06333133  0.16491883     0.30900
H253        H  0.06439577  0.96367599  0.06335683     0.30900
H254        H  0.94997300  0.92373128  0.13802751     0.31200
Zr255      Zr  0.98659139  0.54052009  0.18235200     2.17500
O256        O  0.96286101  0.59809373  0.16341709    -0.51100
O257        O  0.93445874  0.53170121  0.22035384    -0.74400
O258        O  0.94343746  0.53387763  0.13561561    -0.81100
O259        O  0.04825457  0.59169055  0.24477018    -0.82900
O260        O  0.95196950  0.47980128  0.10956996    -0.78500
O261        O  0.99550180  0.59540156  0.21518886    -0.90100
O262        O  0.94415080  0.48152687  0.25150601    -0.76100
O263        O  0.97524526  0.47722470  0.18222133    -0.85600
O264        O  0.01150565  0.51875119  0.23426424    -0.85300
O265        O  0.01748508  0.51874111  0.13233332    -0.72000
O266        O  0.04986862  0.55662386  0.18053866    -0.84200
Zr267      Zr  0.09439908  0.44757452  0.18398946     2.26400
Zr268      Zr  0.00690529  0.45481211  0.13328683     2.06300
Zr269      Zr  0.07462978  0.53382451  0.23245397     2.10000
Zr270      Zr  0.00086171  0.45550599  0.23385746     1.78800
O271        O  0.12297975  0.57896489  0.22949521    -0.93000
O272        O  0.95665926  0.40715010  0.22439152    -0.40800
O273        O  0.06424285  0.47014483  0.23371247    -0.77400
O274        O  0.03119489  0.43116139  0.18519093    -0.96100
O275        O  0.07015513  0.46930523  0.13182068    -0.89400
O276        O  0.10593001  0.51067626  0.18397282    -0.92300
C277        C  0.92519123  0.50888555  0.24354991     1.01500
C278        C  0.01927361  0.60799545  0.23612829     1.14400
C279        C  0.93527405  0.50962190  0.11335112     1.05200
O280        O  0.96067126  0.40740990  0.13249279    -0.94400
O281        O  0.03583286  0.39840384  0.11853563    -0.90200
O282        O  0.08899765  0.39532044  0.14751579    -0.83300
C283        C  0.06541807  0.38262947  0.12650560     1.11800
O284        O  0.06598783  0.58823627  0.10315905    -0.96400
Zr285      Zr  0.08121018  0.53240093  0.13210964     1.88900
O286        O  0.14655234  0.45504517  0.14633999    -0.73000
O287        O  0.01334765  0.45436405  0.07130820    -0.52300
O288        O  0.07473178  0.52356142  0.07061910    -0.97000
O289        O  0.12589799  0.58037195  0.14171257    -0.54200
O290        O  0.13825432  0.50544792  0.11498811    -0.73500
C291        C  0.15649625  0.47751740  0.12314770     0.98800
O292        O  0.11341322  0.39184556  0.21156960    -0.62400
O293        O  0.06930950  0.53773001  0.29446592    -0.57200
O294        O  0.13978269  0.45606055  0.22794999    -0.93900
O295        O  0.12665565  0.50632164  0.25889933    -0.92300
O296        O  0.00425651  0.46122391  0.29581383    -0.92600
O297        O  0.01871198  0.40032020  0.26238973    -0.91400
C298        C  0.14545152  0.47832915  0.25251659     1.17600
H299        H  0.00014788  0.52991846  0.25378348     0.33600
H300        H  0.02834272  0.40530008  0.18567245     0.44400
H301        H  0.13156392  0.51594661  0.18559338     0.38000
H302        H  0.00734051  0.52904109  0.11188156     0.34400
H303        H  0.94548068  0.40302486  0.24705443     0.26200
H304        H  0.99262940  0.43954124  0.06295148     0.32200
H305        H  0.09950341  0.52641112  0.06124198     0.38100
H306        H  0.98070498  0.45173917  0.30423500     0.32500
H307        H  0.07604410  0.56290690  0.30033334     0.31400
H308        H  0.12748726  0.58601512  0.25356045     0.33100
H309        H  0.14744198  0.56838600  0.15122207     0.32100
H310        H  0.04376695  0.39611248  0.25448230     0.36100
H311        H  0.11117170  0.39619806  0.23644657     0.28800
H312        H  0.93614132  0.59535132  0.16351278     0.33000
H313        H  0.08611845  0.59300915  0.08701474     0.35900
H314        H  0.04304743  0.53594272  0.29932240     0.28500
H315        H  0.09400040  0.37384269  0.20682710     0.41400
H316        H  0.96628165  0.39220187  0.15247551     0.31400
H317        H  0.93723915  0.41822862  0.21067683     0.39000
H318        H  0.11611029  0.59448061  0.16104039     0.30900
H319        H  0.00775973  0.47917391  0.06402963     0.30900
H320        H  0.96969460  0.60008024  0.13902877     0.31200
C321        C  0.84343290  0.53066743  0.05000602    -0.05300
C322        C  0.87112789  0.55659841  0.05313762    -0.32700
C323        C  0.90144237  0.54994037  0.07359930     0.36500
C324        C  0.90454262  0.51664815  0.09046587    -0.05600
C325        C  0.87749260  0.49016801  0.08601264    -0.32600
C326        C  0.84669471  0.49730307  0.06647961     0.36400
H327        H  0.86870917  0.58239204  0.04053675     0.16800
O328        O  0.92832895  0.57567485  0.07631652    -0.60100
H329        H  0.87961115  0.46442635  0.09875877     0.16800
O330        O  0.81981243  0.47159501  0.06366232    -0.60200
H331        H  0.80401538  0.47534903  0.08380549     0.43800
H332        H  0.91885033  0.59391217  0.09245471     0.43800
C333        C  0.83087054  0.52984294  0.30595749    -0.05300
C334        C  0.84829946  0.49671113  0.30795119    -0.32700
C335        C  0.87794561  0.48898646  0.28707207     0.36500
C336        C  0.89106978  0.51482778  0.26334153    -0.05600
C337        C  0.87228485  0.54747739  0.26030592    -0.32600
C338        C  0.84245119  0.55500109  0.28136402     0.36400
H339        H  0.83935712  0.47708199  0.99330070     0.16800
O340        O  0.89456595  0.45648245  0.29118971    -0.60100
H341        H  0.88151994  0.56788647  0.24250355     0.16800
O342        O  0.82650800  0.58805199  0.27949320    -0.60200
H343        H  0.80772083  0.58544422  0.26151194     0.43800
H344        H  0.88321474  0.44030293  0.94069486     0.43800
C345        C  0.74784927  0.54385584  0.29512726    -0.05300
C346        C  0.74304224  0.50918711  0.28147583    -0.32700
C347        C  0.71362690  0.50134926  0.25991032     0.36500
C348        C  0.68944081  0.52879260  0.25072455    -0.05600
C349        C  0.69648257  0.56419360  0.26182908    -0.32600
C350        C  0.72508861  0.57168625  0.28431756     0.36400
H351        H  0.76007212  0.48744312  0.95662336     0.16800
O352        O  0.70802124  0.46658389  0.24889590    -0.60100
H353        H  0.67810062  0.58560911  0.25527501     0.16800
O354        O  0.72867354  0.60561005  0.29800146    -0.60200
H355        H  0.74354456  0.61931644  0.28130371     0.43800
H356        H  0.69680814  0.45383315  0.26851243     0.43800
C357        C  0.23521436  0.44843056  0.31369186    -0.05300
C358        C  0.20007486  0.43808086  0.32343160    -0.32700
C359        C  0.17024862  0.44929070  0.30439634     0.36500
C360        C  0.17564868  0.47052227  0.27514702    -0.05600
C361        C  0.21057075  0.48155900  0.26582661    -0.32600
C362        C  0.24036667  0.47070550  0.28497287     0.36400
H363        H  0.19588705  0.42062898  0.01207667     0.16800
O364        O  0.13605524  0.43831655  0.31373684    -0.60100
H365        H  0.21475680  0.49806761  0.24335240     0.16800
O366        O  0.27437966  0.48269182  0.27602820    -0.60200
H367        H  0.28119477  0.46812237  0.25579873     0.43800
H368        H  0.12724314  0.45710688  0.99605313     0.43800
C369        C  0.24841811  0.45337036  0.05870484    -0.05300
C370        C  0.23913577  0.43034023  0.08574005    -0.32700
C371        C  0.21065050  0.43852810  0.10807100     0.36500
C372        C  0.19043321  0.47028763  0.10342201    -0.05600
C373        C  0.20170564  0.49449393  0.07772303    -0.32600
C374        C  0.23030247  0.48621625  0.05549819     0.36400
H375        H  0.25310135  0.40506166  0.08860342     0.16800
O376        O  0.20191347  0.41436185  0.13326475    -0.60100
H377        H  0.18766431  0.51959700  0.07402273     0.16800
O378        O  0.24073491  0.51045513  0.03088291    -0.60200
H379        H  0.21930386  0.51355644  0.01593416     0.43800
H380        H  0.21676827  0.42184007  0.15325852     0.43800
C381        C  0.33113188  0.43847400  0.06746067    -0.05300
C382        C  0.34998638  0.41119381  0.08399936    -0.32700
C383        C  0.38055577  0.41933325  0.10376830     0.36500
C384        C  0.39371439  0.45522179  0.10595845    -0.05600
C385        C  0.37311913  0.48275958  0.09130593    -0.32600
C386        C  0.34183757  0.47460045  0.07241746     0.36400
H387        H  0.34216128  0.38325342  0.07997927     0.16800
O388        O  0.39877643  0.39157265  0.11860154    -0.60100
H389        H  0.38203992  0.51061019  0.09327520     0.16800
O390        O  0.32435010  0.50173729  0.05574138    -0.60200
H391        H  0.30794150  0.51227473  0.07302556     0.43800
H392        H  0.38704241  0.38801659  0.14114508     0.43800
C393        C  0.52270850  0.13683153  0.10343802    -0.05300
C394        C  0.55160407  0.15253223  0.08509792    -0.32700
C395        C  0.54629997  0.18272151  0.06457455     0.36500
C396        C  0.51183926  0.19800955  0.06249493    -0.05600
C397        C  0.48361385  0.18442430  0.08275026    -0.32600
C398        C  0.48874099  0.15401636  0.10317018     0.36400
H399        H  0.57805839  0.14025910  0.08507888     0.16800
O400        O  0.57371362  0.19446229  0.04351266    -0.60100
H401        H  0.45676624  0.19565811  0.08062504     0.16800
O402        O  0.45969576  0.14005599  0.12077138    -0.60200
H403        H  0.44755977  0.12314552  0.10461592     0.43800
H404        H  0.59325168  0.20327633  0.05891863     0.43800
C405        C  0.50456970  0.29808985  0.31278292    -0.05300
C406        C  0.53940974  0.31327526  0.31126380    -0.32700
C407        C  0.54635406  0.34367875  0.29133695     0.36500
C408        C  0.51802838  0.35934444  0.27252194    -0.05600
C409        C  0.48282511  0.34465075  0.27507698    -0.32600
C410        C  0.47605894  0.31412058  0.29496428     0.36400
H411        H  0.56202257  0.30012966  0.99059255     0.16800
O412        O  0.58119005  0.35685997  0.28938078    -0.60100
H413        H  0.46053875  0.35658065  0.26133285     0.16800
O414        O  0.44149822  0.30025347  0.29714170    -0.60200
H415        H  0.43778291  0.28621194  0.27582076     0.43800
H416        H  0.59249023  0.34322479  0.93621586     0.43800
C417        C  0.51346691  0.28216451  0.05574883    -0.05300
C418        C  0.48359513  0.30152916  0.06740219    -0.32700
C419        C  0.48809908  0.33096088  0.08957946     0.36500
C420        C  0.52308884  0.34211546  0.09997021    -0.05600
C421        C  0.55296069  0.32185163  0.08912433    -0.32600
C422        C  0.54829471  0.29199646  0.06722400     0.36400
H423        H  0.45672717  0.29442154  0.05823974     0.16800
O424        O  0.45829651  0.35020903  0.09887230    -0.60100
H425        H  0.58009980  0.32966977  0.09700301     0.16800
O426        O  0.57783391  0.27302462  0.05653780    -0.60200
H427        H  0.59291436  0.29018526  0.04316277     0.43800
H428        H  0.44794597  0.33712552  0.11870101     0.43800
C429        C  0.57827694  0.84223190  0.24941802    -0.05300
C430        C  0.61404012  0.83079686  0.25437744    -0.32700
C431        C  0.62134410  0.80148189  0.27548028     0.36500
C432        C  0.59277122  0.78312988  0.29181179    -0.05600
C433        C  0.55693265  0.79210036  0.28423792    -0.32600
C434        C  0.54951557  0.82154821  0.26324715     0.36400
H435        H  0.63654106  0.84579076  0.24346164     0.16800
O436        O  0.65658452  0.79230804  0.28169529    -0.60100
H437        H  0.53466385  0.77805929  0.96323916     0.16800
O438        O  0.51414962  0.83017760  0.25677631    -0.60200
H439        H  0.50567050  0.84306673  0.94397790     0.43800
H440        H  0.66201839  0.77336514  0.26460750     0.43800
C441        C  0.56328726  0.62839765  0.08630712    -0.05300
C442        C  0.54698200  0.66116159  0.09408114    -0.32700
C443        C  0.55507165  0.69179819  0.07484234     0.36500
C444        C  0.57990394  0.68976264  0.04762477    -0.05600
C445        C  0.59569075  0.65673461  0.03942853    -0.32600
C446        C  0.58753837  0.62604759  0.05871102     0.36400
H447        H  0.52832638  0.66305192  0.11536465     0.16800
O448        O  0.53865539  0.72365723  0.08281318    -0.60100
H449        H  0.61492048  0.65496657  0.01860747     0.16800
O450        O  0.60324311  0.59391786  0.05039931    -0.60200
H451        H  0.62473967  0.59223714  0.06549083     0.43800
H452        H  0.51559366  0.72323767  0.06980120     0.43800
C453        C  0.57689969  0.70139811  0.30296989    -0.05300
C454        C  0.60204168  0.69178286  0.27784096    -0.32700
C455        C  0.59509877  0.66294551  0.25542496     0.36500
C456        C  0.56231471  0.64291444  0.25789558    -0.05600
C457        C  0.53630545  0.65414054  0.28195514    -0.32600
C458        C  0.54349875  0.68289440  0.30447112     0.36400
H459        H  0.62789752  0.70585858  0.27657062     0.16800
O460        O  0.62143663  0.65357158  0.23248718    -0.60100
H461        H  0.51055298  0.63999904  0.28410964     0.16800
O462        O  0.51766609  0.69307459  0.32764228    -0.60200
H463        H  0.51450311  0.67239029  0.00985786     0.43800
H464        H  0.61845595  0.67022050  0.21296211     0.43800
C465        C  0.20104967  0.03090851  0.10280788    -0.05300
C466        C  0.21014043  0.06749817  0.09835781    -0.32700
C467        C  0.23982744  0.07787265  0.07840617     0.36500
C468        C  0.26123280  0.05162203  0.06264405    -0.05600
C469        C  0.25382742  0.01507059  0.06881715    -0.32600
C470        C  0.22372495  0.00455455  0.08841887     0.36400
H471        H  0.19329916  0.08829531  0.10919784     0.16800
O472        O  0.24676124  0.11380438  0.07314037    -0.60100
H473        H  0.26997485  0.99457116  0.05657373     0.16800
O474        O  0.21668116  0.96854965  0.09320189    -0.60200
H475        H  0.20507717  0.96010647  0.07170883     0.43800
H476        H  0.26257515  0.12137977  0.09241966     0.43800
C477        C  0.35916477  0.04254857  0.31018316    -0.05300
C478        C  0.39466388  0.04793038  0.32228572    -0.32700
C479        C  0.42428889  0.03617421  0.30304321     0.36500
C480        C  0.41846324  0.01957795  0.27110449    -0.05600
C481        C  0.38315010  0.01377785  0.25924697    -0.32600
C482        C  0.35357811  0.02496711  0.27857707     0.36400
H483        H  0.39958363  0.06169581  0.01294629     0.16800
O484        O  0.45880887  0.04292005  0.31460920    -0.60100
H485        H  0.37851409  0.00084067  0.23472276     0.16800
O486        O  0.31919131  0.01791271  0.26674514    -0.60200
H487        H  0.31536207  0.03528417  0.24793723     0.43800
H488        H  0.46471849  0.02107085  0.99546212     0.43800
C489        C  0.40103205  0.01562614  0.09861198    -0.05300
C490        C  0.38936767  0.99193411  0.07239348    -0.32700
C491        C  0.36059111  0.00087248  0.05064312     0.36500
C492        C  0.34324897  0.03403115  0.05461139    -0.05600
C493        C  0.35265352  0.05625454  0.08234608    -0.32600
C494        C  0.38086984  0.04716798  0.10449336     0.36400
H495        H  0.40319552  0.96681296  0.06794897     0.16800
O496        O  0.34943170  0.97722513  0.02558584    -0.60100
H497        H  0.33898760  0.08161808  0.08593651     0.16800
O498        O  0.38920114  0.07010909  0.13097668    -0.60200
H499        H  0.37386723  0.06181647  0.15028570     0.43800
H500        H  0.37052261  0.97418188  0.01021252     0.43800
C501        C  0.84563721  0.94796049  0.29163044    -0.05300
C502        C  0.85683071  0.98389293  0.28764655    -0.32700
C503        C  0.88728156  0.99263558  0.26786165     0.36500
C504        C  0.90716639  0.96504954  0.25193333    -0.05600
C505        C  0.89413205  0.92931365  0.25402523    -0.32600
C506        C  0.86377583  0.92072707  0.27384235     0.36400
H507        H  0.84397492  0.00497938  0.96891925     0.16800
O508        O  0.89791213  0.02805975  0.26508741    -0.60100
H509        H  0.90880787  0.90754465  0.24210769     0.16800
O510        O  0.85388740  0.88528207  0.27805224    -0.60200
H511        H  0.83463112  0.88072877  0.26085551     0.43800
H512        H  0.91028335  0.03415355  0.95327570     0.43800
C513        C  0.74394812  0.94307996  0.04111876    -0.05300
C514        C  0.72973297  0.97784260  0.04042072    -0.32700
C515        C  0.69981072  0.98671728  0.06045640     0.36500
C516        C  0.68387087  0.96057864  0.08206651    -0.05600
C517        C  0.69750762  0.92537633  0.08171939    -0.32600
C518        C  0.72739329  0.91662845  0.06162263     0.36400
H519        H  0.74291261  0.99875185  0.02559392     0.16800
O520        O  0.68787173  0.02153503  0.06015852    -0.60100
H521        H  0.68529897  0.90451627  0.09738983     0.16800
O522        O  0.74008097  0.88206973  0.06191952    -0.60200
H523        H  0.75387069  0.87998443  0.08355850     0.43800
H524        H  0.67205505  0.02311247  0.03973530     0.43800
C525        C  0.70173805  0.96409046  0.25355221    -0.05300
C526        C  0.72376278  0.99294922  0.26504996    -0.32700
C527        C  0.75327553  0.98712092  0.28694404     0.36500
C528        C  0.76093588  0.95211919  0.29802021    -0.05600
C529        C  0.73973877  0.92316733  0.28587468    -0.32600
C530        C  0.71040064  0.92883322  0.26386215     0.36400
H531        H  0.71751980  0.02028985  0.25775714     0.16800
O532        O  0.77280230  0.01596591  0.29939372    -0.60100
H533        H  0.74514336  0.89617578  0.29477227     0.16800
O534        O  0.68913190  0.89993110  0.25434232    -0.60200
H535        H  0.66964389  0.89861623  0.27175107     0.43800
H536        H  0.78640419  0.02565422  0.27952918     0.43800
C537        C  0.09994866  0.18877388  0.31896495    -0.05300
C538        C  0.12738147  0.17606894  0.29760838    -0.32700
C539        C  0.12144625  0.14609195  0.27659555     0.36500
C540        C  0.08741550  0.12816837  0.27671333    -0.05600
C541        C  0.06029577  0.14047953  0.29895507    -0.32600
C542        C  0.06617070  0.17081526  0.31955522     0.36400
H543        H  0.15336321  0.18998364  0.29667645     0.16800
O544        O  0.14888596  0.13522814  0.25550260    -0.60100
H545        H  0.03381963  0.12753168  0.29938759     0.16800
O546        O  0.03798650  0.18391108  0.33847478    -0.60200
H547        H  0.02557465  0.20113509  0.32327985     0.43800
H548        H  0.16439180  0.11981583  0.26988032     0.43800
C549        C  0.09152436  0.20393936  0.06285767    -0.05300
C550        C  0.05751942  0.19879800  0.07811279    -0.32700
C551        C  0.05105408  0.16929477  0.09977228     0.36500
C552        C  0.07923503  0.14517844  0.10727029    -0.05600
C553        C  0.11388708  0.15207383  0.09383027    -0.32600
C554        C  0.11999022  0.18094470  0.07156149     0.36400
H555        H  0.03550488  0.21654016  0.07180244     0.16800
O556        O  0.01721482  0.16431773  0.11357693    -0.60100
H557        H  0.13594623  0.13400585  0.09925123     0.16800
O558        O  0.15388183  0.18650138  0.05808649    -0.60200
H559        H  0.15597919  0.16870839  0.03925577     0.43800
H560        H  0.00222865  0.15383737  0.09489687     0.43800
C561        C  0.07372814  0.34789641  0.10985979    -0.05300
C562        C  0.10997521  0.33669271  0.10832353    -0.32700
C563        C  0.11956891  0.30690564  0.08868419     0.36500
C564        C  0.09283480  0.28767218  0.07051687    -0.05600
C565        C  0.05635474  0.29661254  0.07437939    -0.32600
C566        C  0.04661644  0.32661456  0.09383231     0.36400
H567        H  0.13133767  0.35226528  0.12066147     0.16800
O568        O  0.15546532  0.29862335  0.08507427    -0.60100
H569        H  0.03565138  0.28216932  0.06000432     0.16800
O570        O  0.01071484  0.33535472  0.09623107    -0.60200
H571        H  0.00526071  0.34869906  0.07498148     0.43800
H572        H  0.15908778  0.27720561  0.09966627     0.43800
C573        C  0.03042080  0.85888678  0.09031109    -0.05300
C574        C  0.05677664  0.83262424  0.08516105    -0.32700
C575        C  0.04877531  0.80182819  0.06572255     0.36500
C576        C  0.01457171  0.79798839  0.05023540    -0.05600
C577        C  0.98865416  0.82474655  0.05437727    -0.32600
C578        C  0.99619928  0.85492057  0.07474551     0.36400
H579        H  0.08304460  0.83530059  0.09736641     0.16800
O580        O  0.07363404  0.77474526  0.06336518    -0.60100
H581        H  0.96218435  0.82166930  0.04264447     0.16800
O582        O  0.97029894  0.88072218  0.07883403    -0.60200
H583        H  0.95245771  0.87019777  0.09503448     0.43800
H584        H  0.09511140  0.78546648  0.05187192     0.43800
C585        C  0.03386507  0.84542942  0.26394701    -0.05300
C586        C  0.00170035  0.82504272  0.25922789    -0.32700
C587        C  0.99340514  0.79535694  0.28019450     0.36500
C588        C  0.01741290  0.78523853  0.30631138    -0.05600
C589        C  0.05019523  0.80421229  0.30993778    -0.32600
C590        C  0.05841423  0.83412356  0.28954318     0.36400
H591        H  0.98229559  0.83271103  0.23990147     0.16800
O592        O  0.96123494  0.77723704  0.94251821    -0.60100
H593        H  0.06925257  0.79629361  0.32938011     0.16800
O594        O  0.09044046  0.85229160  0.29540752    -0.60200
H595        H  0.08581569  0.86784684  0.31550435     0.43800
H596        H  0.94480541  0.78719575  0.96014434     0.43800
C597        C  0.00029757  0.70259980  0.29569757    -0.05300
C598        C  0.97091748  0.68277816  0.28241504    -0.32700
C599        C  0.97658667  0.65329764  0.26084335     0.36500
C600        C  0.01222873  0.64298280  0.25275523    -0.05600
C601        C  0.04148189  0.66439639  0.26432188    -0.32600
C602        C  0.03566961  0.69422131  0.28544234     0.36400
H603        H  0.94361840  0.68868695  0.29068724     0.16800
O604        O  0.94722958  0.63322813  0.25001282    -0.60100
H605        H  0.06905862  0.65697562  0.25835631     0.16800
O606        O  0.06490755  0.71237529  0.29908054    -0.60200
H607        H  0.07133095  0.73101637  0.28197728     0.43800
H608        H  0.94260340  0.61547819  0.26840529     0.43800
N609        N  0.00692580  0.75881915  0.66498177    -0.03300
C610        C  0.99472383  0.72462649  0.65990032    -0.00700
C611        C  0.98416669  0.70923520  0.35713231    -0.23600
C612        C  0.99026060  0.73470697  0.38207084    -0.23800
C613        C  0.00428963  0.76457527  0.36568506    -0.00800
H614        H  0.97508907  0.68173141  0.36114748     0.13000
H615        H  0.98568127  0.73159230  0.40921637     0.13000
N616        N  0.09673607  0.23040348  0.36975070    -0.03300
C617        C  0.10308731  0.26603104  0.37414605    -0.00700
C618        C  0.11580516  0.28149472  0.34435756    -0.23600
C619        C  0.11739434  0.25435195  0.65391533    -0.23800
C620        C  0.10549159  0.22339824  0.33680462    -0.00800
H621        H  0.12187322  0.30973673  0.67342203     0.13000
H622        H  0.12516219  0.25707656  0.62738386     0.13000
N623        N  0.78696103  0.94583136  0.65807843    -0.03300
C624        C  0.82253932  0.93843348  0.65426203    -0.00700
C625        C  0.83662454  0.92466474  0.35075582    -0.23600
C626        C  0.80865643  0.92314356  0.37380890    -0.23800
C627        C  0.77854795  0.93608734  0.35711753    -0.00800
H628        H  0.86453468  0.91769483  0.35556924     0.13000
H629        H  0.81047286  0.91494503  0.40024744     0.13000
N630        N  0.31897771  0.04756864  0.36226232    -0.03300
C631        C  0.28596275  0.06191505  0.36795548    -0.00700
C632        C  0.27410572  0.07981950  0.33923126    -0.23600
C633        C  0.30069770  0.07605409  0.64826262    -0.23800
C634        C  0.32771541  0.05605517  0.32955069    -0.00800
H635        H  0.24794623  0.09203228  0.33554923     0.13000
H636        H  0.29968067  0.08589022  0.62229664     0.13000
N637        N  0.58673214  0.72808631  0.66171550    -0.03300
C638        C  0.59962786  0.76180644  0.65593696    -0.00700
C639        C  0.61168764  0.77745798  0.35262654    -0.23600
C640        C  0.60588743  0.75261689  0.37801675    -0.23800
C641        C  0.59079338  0.72253531  0.36243642    -0.00800
H642        H  0.62142193  0.80486711  0.35603996     0.13000
H643        H  0.61152253  0.75626579  0.40495929     0.13000
N644        N  0.50828393  0.25572428  0.36223434    -0.03300
C645        C  0.50320788  0.21980339  0.36568973    -0.00700
C646        C  0.49186450  0.20447796  0.33520324    -0.23600
C647        C  0.48916428  0.23217052  0.64565924    -0.23800
C648        C  0.49940803  0.26308620  0.32947768    -0.00800
H649        H  0.48691847  0.17615758  0.33013605     0.13000
H650        H  0.48212300  0.22976435  0.61889161     0.13000
N651        N  0.27370883  0.44155101  0.36634171    -0.03300
C652        C  0.30739346  0.42881348  0.37184069    -0.00700
C653        C  0.32134381  0.41423506  0.34217042    -0.23600
C654        C  0.29560041  0.41844957  0.65062699    -0.23800
C655        C  0.26677388  0.43546429  0.33275397    -0.00800
H656        H  0.34847145  0.40411669  0.67168335     0.13000
H657        H  0.29817352  0.41133071  0.62390659     0.13000
N658        N  0.80440109  0.53927019  0.66474400    -0.03300
C659        C  0.76937592  0.54859179  0.65995343    -0.00700
C660        C  0.75279687  0.55471646  0.35787135    -0.23600
C661        C  0.77850685  0.54918376  0.38261296    -0.23800
C662        C  0.80970466  0.53974522  0.36565662    -0.00800
H663        H  0.72451473  0.56052113  0.36222682     0.13000
H664        H  0.77464467  0.55087281  0.40997655     0.13000
Zr665      Zr  0.58814318  0.54824915  0.51076650     2.17500
O666        O  0.64520100  0.56955097  0.48617209    -0.51100
O667        O  0.57896372  0.60003549  0.54830095    -0.74400
O668        O  0.57913091  0.59253352  0.46622525    -0.81100
O669        O  0.63877442  0.49056350  0.57453703    -0.82900
O670        O  0.52853614  0.57766225  0.43554211    -0.78500
O671        O  0.64196498  0.54392474  0.54625639    -0.90100
O672        O  0.52789113  0.58982759  0.57903726    -0.76100
O673        O  0.52440580  0.55688059  0.50915869    -0.85600
O674        O  0.56524361  0.52416369  0.56272566    -0.85300
O675        O  0.56700222  0.51601156  0.46100866    -0.72000
O676        O  0.60512504  0.48604949  0.51046464    -0.84200
Zr677      Zr  0.49549915  0.43744292  0.51216939     2.26400
Zr678      Zr  0.50255750  0.52356153  0.46064563     2.06300
Zr679      Zr  0.58069165  0.46199988  0.56217944     2.10000
Zr680      Zr  0.50166937  0.53249944  0.56100053     1.78800
O681        O  0.62441486  0.41351228  0.56158835    -0.93000
O682        O  0.45488458  0.57628587  0.54867276    -0.40800
O683        O  0.51652307  0.46986227  0.56164345    -0.77400
O684        O  0.47842503  0.49968655  0.51275780    -0.96100
O685        O  0.51842079  0.46144581  0.46016653    -0.89400
O686        O  0.55924575  0.42904093  0.51357388    -0.92300
C687        C  0.55586787  0.60901280  0.57129134     1.01500
C688        C  0.65476764  0.52035847  0.56679197     1.14400
C689        C  0.55641766  0.59754814  0.44195377     1.05200
O690        O  0.45558087  0.56893086  0.45893264    -0.94400
O691        O  0.44487901  0.49424370  0.44692482    -0.90200
O692        O  0.44264022  0.44129539  0.47566772    -0.83300
C693        C  0.42923669  0.46431179  0.45503143     1.11800
O694        O  0.63721001  0.47452849  0.43314925    -0.96400
Zr695      Zr  0.58220456  0.45353268  0.46181057     1.88900
O696        O  0.50491912  0.38598787  0.47413525    -0.73000
O697        O  0.50337483  0.51329208  0.39911503    -0.52300
O698        O  0.57449206  0.45572889  0.40000244    -0.97000
O699        O  0.63200268  0.41244776  0.47203099    -0.50600
O700        O  0.55755053  0.39503722  0.44512727    -0.73500
C701        C  0.52898451  0.37643097  0.45223246     0.98800
O702        O  0.43995961  0.41563462  0.53986303    -0.62400
O703        O  0.58304823  0.46973736  0.62406085    -0.57200
O704        O  0.50387598  0.39331405  0.55695374    -0.93900
O705        O  0.55206525  0.41078807  0.58946966    -0.92300
O706        O  0.50709828  0.52674849  0.62278878    -0.92600
O707        O  0.44446183  0.51723018  0.58873087    -0.91400
C708        C  0.52519929  0.38973585  0.58261614     1.17600
H709        H  0.57591630  0.53609034  0.58230782     0.33600
H710        H  0.45239485  0.50155642  0.51307279     0.44400
H711        H  0.56499042  0.40385543  0.51561163     0.38000
H712        H  0.57760226  0.52634692  0.44070520     0.34400
H713        H  0.44991583  0.58807565  0.57087911     0.26200
H714        H  0.49066357  0.53415409  0.38929867     0.32200
H715        H  0.58533324  0.43323172  0.39132497     0.38100
H716        H  0.50154392  0.55092534  0.63199438     0.32500
H717        H  0.60248343  0.45352183  0.63171728     0.31400
H718        H  0.63284093  0.41175299  0.58553816     0.33100
H719        H  0.62076426  0.39092977  0.48274397     0.32100
H720        H  0.44087404  0.49118760  0.58412405     0.36100
H721        H  0.44350396  0.42040820  0.56455488     0.28800
H722        H  0.64517102  0.59608625  0.48878027     0.33000
H723        H  0.64552738  0.45395802  0.41916723     0.35900
H724        H  0.59303090  0.49429538  0.62793587     0.28500
H725        H  0.42065574  0.43261702  0.53353799     0.41400
H726        H  0.43815666  0.56163291  0.47692325     0.31400
H727        H  0.46724810  0.59519244  0.53502725     0.39000
H728        H  0.64631443  0.42395559  0.49058827     0.30900
H729        H  0.52900853  0.51689990  0.39235703     0.30900
H730        H  0.64305059  0.56512688  0.46127460     0.31200
Zr731      Zr  0.60318067  0.94145093  0.50889960     2.17500
O732        O  0.62104952  0.88317420  0.48599951    -0.51100
O733        O  0.65624923  0.94782016  0.54589448    -0.74400
O734        O  0.64699301  0.94738813  0.46309347    -0.81100
O735        O  0.54369417  0.89512946  0.57504726    -0.82900
O736        O  0.63523606  0.99775644  0.43261901    -0.78500
O737        O  0.59499951  0.88819210  0.54380413    -0.90100
O738        O  0.65177787  0.00108667  0.57408840    -0.76100
O739        O  0.61653313  0.00432482  0.50595003    -0.85600
O740        O  0.58216514  0.96615471  0.56122967    -0.85300
O741        O  0.57095161  0.96225066  0.45940715    -0.72000
O742        O  0.53953748  0.92749060  0.51056254    -0.84200
Zr743      Zr  0.49850556  0.03778124  0.51135320     2.26400
Zr744      Zr  0.58289940  0.02588858  0.45790985     2.06300
Zr745      Zr  0.51856744  0.95373912  0.56270488     2.10000
Zr746      Zr  0.59492013  0.02882443  0.55814649     1.78800
O747        O  0.46848557  0.91058483  0.56648001    -0.93000
O748        O  0.64015057  0.07524372  0.54538917    -0.40800
O749        O  0.53086352  0.01707535  0.56061534    -0.77400
O750        O  0.56227850  0.05195751  0.51025605    -0.96100
O751        O  0.51944446  0.01294172  0.45898375    -0.89400
O752        O  0.48567584  0.97488984  0.51430451    -0.92300
C753        C  0.66799967  0.97153206  0.56737927     1.01500
C754        C  0.57154527  0.87722402  0.56575051     1.14400
C755        C  0.65343348  0.96927035  0.43846315     1.05200
O756        O  0.62981973  0.07208581  0.45117787    -0.94400
O757        O  0.55579320  0.08337684  0.44424515    -0.90200
O758        O  0.50477821  0.09086231  0.47566428    -0.83300
C759        C  0.52805955  0.10158515  0.45344737     1.11800
O760        O  0.51989643  0.89127362  0.43712457    -0.96400
Zr761      Zr  0.50713337  0.95000894  0.46220181     1.88900
O762        O  0.44630126  0.03072448  0.47350287    -0.73000
O763        O  0.57256455  0.02380420  0.39640999    -0.52300
O764        O  0.51037194  0.95198961  0.39997194    -0.97000
O765        O  0.45981235  0.90602257  0.47612641    -0.54200
O766        O  0.45186042  0.97870695  0.44361135    -0.73500
C767        C  0.43504705  0.00770295  0.45111776     0.98800
O768        O  0.48236556  0.09363577  0.54049976    -0.62400
O769        O  0.52773058  0.95294054  0.62440768    -0.57200
O770        O  0.45163352  0.02940713  0.55405219    -0.93900
O771        O  0.47029676  0.98612168  0.59090839    -0.92300
O772        O  0.59098301  0.02378757  0.62009544    -0.92600
O773        O  0.58465826  0.08626082  0.58655674    -0.91400
C774        C  0.44885165  0.01118264  0.58172110     1.17600
H775        H  0.59407355  0.95535919  0.58057286     0.33600
H776        H  0.56602149  0.07773834  0.51004174     0.44400
H777        H  0.46006063  0.97025520  0.51696703     0.38000
H778        H  0.58012439  0.95081416  0.43902142     0.34400
H779        H  0.65629814  0.07583513  0.56560299     0.26200
H780        H  0.59304595  0.03775117  0.38652183     0.32200
H781        H  0.48632692  0.94332956  0.39194671     0.38100
H782        H  0.61535916  0.03085838  0.62856627     0.32500
H783        H  0.51829419  0.92914813  0.63183733     0.31400
H784        H  0.46273361  0.90934279  0.59115586     0.33100
H785        H  0.43808179  0.92024059  0.48162929     0.32100
H786        H  0.55896758  0.09164061  0.58176519     0.36100
H787        H  0.48245329  0.08799462  0.56519704     0.28800
H788        H  0.64781134  0.88280497  0.48765647     0.33000
H789        H  0.49806210  0.88442026  0.42376192     0.35900
H790        H  0.55423677  0.95158885  0.62780912     0.28500
H791        H  0.50373516  0.10979749  0.53777682     0.41400
H792        H  0.62551773  0.08943083  0.46996345     0.31400
H793        H  0.65514558  0.06480855  0.52697775     0.39000
H794        H  0.46741667  0.89574045  0.49825089     0.30900
H795        H  0.57717232  0.99855631  0.38965615     0.30900
H796        H  0.61573270  0.88413926  0.46121692     0.31200
Zr797      Zr  0.00967947  0.93991131  0.51593380     2.17500
O798        O  0.95110570  0.91700113  0.49591098    -0.51100
O799        O  0.01725088  0.88832068  0.55424603    -0.74400
O800        O  0.01517955  0.89667522  0.46957829    -0.81100
O801        O  0.96059896  0.00076353  0.57844466    -0.82900
O802        O  0.06781591  0.90727199  0.44089815    -0.78500
O803        O  0.95498500  0.94835993  0.54870420    -0.90100
O804        O  0.06956600  0.89727119  0.58340696    -0.76100
O805        O  0.07302205  0.92917061  0.51306808    -0.85600
O806        O  0.03414822  0.96355084  0.56776294    -0.85300
O807        O  0.03011015  0.97176458  0.46585757    -0.72000
O808        O  0.99493153  0.00278091  0.51609529    -0.84200
Zr809      Zr  0.10568530  0.04766174  0.51645632     2.26400
Zr810      Zr  0.09427877  0.96204438  0.46416996     2.06300
Zr811      Zr  0.02061172  0.02620794  0.56779320     2.10000
Zr812      Zr  0.09744262  0.95330578  0.56463916     1.78800
O813        O  0.97867973  0.07602956  0.57273891    -0.93000
O814        O  0.14372280  0.90903718  0.55215382    -0.40800
O815        O  0.08444611  0.01635602  0.56626057    -0.77400
O816        O  0.12050153  0.98490634  0.51586784    -0.96100
O817        O  0.08088281  0.02466477  0.46473004    -0.89400
O818        O  0.04234871  0.05849563  0.51917484    -0.92300
C819        C  0.04073715  0.87890854  0.57675290     1.01500
C820        C  0.94295435  0.97217980  0.56944133     1.14400
C821        C  0.03832918  0.88956177  0.44617308     1.05200
O822        O  0.14171058  0.91740741  0.45937267    -0.94400
O823        O  0.15096307  0.99138955  0.44723774    -0.90200
O824        O  0.15608342  0.04390817  0.47702791    -0.83300
C825        C  0.16737748  0.02115297  0.45480498     1.11800
O826        O  0.96279151  0.01862228  0.43611782    -0.96400
Zr827      Zr  0.01768684  0.03506806  0.46753437     1.88900
O828        O  0.09760797  0.09974629  0.47939985    -0.73000
O829        O  0.08926354  0.97121230  0.40271801    -0.52300
O830        O  0.02871574  0.03496692  0.40611119    -0.97000
O831        O  0.96748448  0.07513999  0.47963477    -0.54200
O832        O  0.04254324  0.09423318  0.45370301    -0.73500
C833        C  0.07248174  0.11115872  0.45953347     0.98800
O834        O  0.16370728  0.06246806  0.54344364    -0.62400
O835        O  0.01937961  0.01441666  0.62897822    -0.57200
O836        O  0.10011550  0.09288379  0.56087050    -0.93900
O837        O  0.05174656  0.07738943  0.59380236    -0.92300
O838        O  0.09539217  0.95741754  0.62675450    -0.92600
O839        O  0.15593833  0.96789732  0.59034285    -0.91400
C840        C  0.07934788  0.09746968  0.58677611     1.17600
H841        H  0.02341667  0.95213370  0.58753923     0.33600
H842        H  0.14645112  0.98218829  0.51529522     0.44400
H843        H  0.03749352  0.08385408  0.52161439     0.38000
H844        H  0.01865652  0.96184083  0.44568606     0.34400
H845        H  0.14408305  0.89325030  0.57248257     0.26200
H846        H  0.10510980  0.95280876  0.39243842     0.32200
H847        H  0.01954709  0.05832669  0.39788488     0.38100
H848        H  0.10476024  0.93411188  0.63489249     0.32500
H849        H  0.04475699  0.01799369  0.63658681     0.31400
H850        H  0.96969675  0.07486678  0.59654450     0.33100
H851        H  0.97873517  0.09675084  0.49036372     0.32100
H852        H  0.15797995  0.99445762  0.58893349     0.36100
H853        H  0.15932484  0.06008915  0.56828933     0.28800
H854        H  0.95267563  0.89038501  0.49619601     0.33000
H855        H  0.95723680  0.03971652  0.42172070     0.35900
H856        H  0.00623684  0.03499606  0.63897938     0.28500
H857        H  0.17956914  0.04190278  0.53811488     0.41400
H858        H  0.14389536  0.91272344  0.43454758     0.31400
H859        H  0.13322338  0.89372226  0.53379903     0.39000
H860        H  0.95398017  0.06328227  0.49841689     0.30900
H861        H  0.06437114  0.96320800  0.39668297     0.30900
H862        H  0.94983122  0.92359977  0.47147132     0.31200
Zr863      Zr  0.98656819  0.54050682  0.51569074     2.17500
O864        O  0.96276911  0.59804479  0.49673192    -0.51100
O865        O  0.93444688  0.53159742  0.55366804    -0.74400
O866        O  0.94342124  0.53379633  0.46896422    -0.81100
O867        O  0.04829772  0.59176749  0.57801672    -0.82900
O868        O  0.95191987  0.47969186  0.44296087    -0.78500
O869        O  0.99538066  0.59532124  0.54867275    -0.90100
O870        O  0.94416502  0.48147260  0.58488959    -0.76100
O871        O  0.97523259  0.47721340  0.51556373    -0.85600
O872        O  0.01149223  0.51871910  0.56757703    -0.85300
O873        O  0.01744977  0.51871513  0.46567295    -0.72000
O874        O  0.04983227  0.55668709  0.51386434    -0.84200
Zr875      Zr  0.09437556  0.44755228  0.51731664     2.26400
Zr876      Zr  0.00688020  0.45478170  0.46663990     2.06300
Zr877      Zr  0.07460125  0.53384408  0.56576176     2.10000
Zr878      Zr  0.00085310  0.45547752  0.56718334     1.78800
O879        O  0.12331406  0.57858789  0.56263000    -0.93000
O880        O  0.95648923  0.40726952  0.55771306    -0.40800
O881        O  0.06422584  0.47015319  0.56703270    -0.77400
O882        O  0.03118183  0.43112489  0.51853011    -0.96100
O883        O  0.07011682  0.46931124  0.46516829    -0.89400
O884        O  0.10588116  0.51065485  0.51729361    -0.92300
C885        C  0.92519565  0.50880822  0.57689098     1.01500
C886        C  0.01922226  0.60799224  0.56950525     1.14400
C887        C  0.93524466  0.50952127  0.44672321     1.05200
O888        O  0.96064576  0.40737510  0.46587454    -0.94400
O889        O  0.03571876  0.39836377  0.45184004    -0.90200
O890        O  0.08890834  0.39531366  0.48078344    -0.83300
C891        C  0.06531670  0.38260821  0.45978419     1.11800
O892        O  0.06580610  0.58817699  0.43643259    -0.96400
Zr893      Zr  0.08116403  0.53241430  0.46544777     1.88900
O894        O  0.14650534  0.45507686  0.47963163    -0.73000
O895        O  0.01337292  0.45434984  0.40466772    -0.52300
O896        O  0.07481159  0.52351396  0.40396137    -0.97000
O897        O  0.12592455  0.58033634  0.47500478    -0.54200
O898        O  0.13822688  0.50552619  0.44833563    -0.73500
C899        C  0.15645970  0.47758244  0.45646736     0.98800
O900        O  0.11337306  0.39176677  0.54480210    -0.62400
O901        O  0.06901516  0.53814812  0.62772080    -0.57200
O902        O  0.13966561  0.45609157  0.56139392    -0.93900
O903        O  0.12652530  0.50633323  0.59237190    -0.92300
O904        O  0.00440660  0.46121940  0.62912910    -0.92600
O905        O  0.01857140  0.40010497  0.59545697    -0.91400
C906        C  0.14532655  0.47834436  0.58598261     1.17600
H907        H  0.00012485  0.52987265  0.58709651     0.33600
H908        H  0.02833286  0.40526294  0.51902051     0.44400
H909        H  0.13151593  0.51591164  0.51891810     0.38000
H910        H  0.00730008  0.52900490  0.44521986     0.34400
H911        H  0.94519973  0.40327170  0.58034731     0.26200
H912        H  0.99282541  0.43928859  0.39631452     0.32200
H913        H  0.09939313  0.52760418  0.39451450     0.38100
H914        H  0.98095108  0.45155528  0.63760915     0.32500
H915        H  0.07791112  0.56267365  0.63361663     0.31400
H916        H  0.12735101  0.58628229  0.58659316     0.33100
H917        H  0.14730957  0.56839494  0.48487842     0.32100
H918        H  0.04457490  0.39756281  0.58992808     0.36100
H919        H  0.11126664  0.39611544  0.56968969     0.28800
H920        H  0.93605314  0.59525668  0.49677147     0.33000
H921        H  0.08603798  0.59310666  0.42044166     0.35900
H922        H  0.04268193  0.53872192  0.63235170     0.28500
H923        H  0.09387685  0.37382953  0.54013896     0.41400
H924        H  0.96637302  0.39206424  0.48575545     0.31400
H925        H  0.93717330  0.41837347  0.54388575     0.39000
H926        H  0.11596406  0.59472029  0.49406754     0.30900
H927        H  0.00750880  0.47908335  0.39736078     0.30900
H928        H  0.96965553  0.60005397  0.47235874     0.31200
C929        C  0.84350893  0.53058256  0.38329218    -0.05300
C930        C  0.87114415  0.55655477  0.38654543    -0.32700
C931        C  0.90142391  0.54988885  0.40704070     0.36500
C932        C  0.90454521  0.51655120  0.42381768    -0.05600
C933        C  0.87756252  0.49002762  0.41923594    -0.32600
C934        C  0.84679074  0.49717129  0.39967454     0.36400
H935        H  0.86869633  0.58238899  0.37402511     0.16800
O936        O  0.92825821  0.57566367  0.40988311    -0.60100
H937        H  0.87970169  0.46425055  0.43191482     0.16800
O938        O  0.81993582  0.47144453  0.39677110    -0.60200
H939        H  0.80418703  0.47504478  0.41697421     0.43800
H940        H  0.91863606  0.59393053  0.42591358     0.43800
C941        C  0.83099169  0.52994973  0.63933538    -0.05300
C942        C  0.84837181  0.49679356  0.64135751    -0.32700
C943        C  0.87795368  0.48898276  0.62043199     0.36500
C944        C  0.89109286  0.51478622  0.59667611    -0.05600
C945        C  0.87235317  0.54745495  0.59361257    -0.32600
C946        C  0.84255213  0.55504367  0.61467765     0.36400
H947        H  0.83936606  0.47701798  0.32656230     0.16800
O948        O  0.89447431  0.45642011  0.62449803    -0.60100
H949        H  0.88158905  0.56782411  0.57576961     0.16800
O950        O  0.82660071  0.58808401  0.61272274    -0.60200
H951        H  0.80789024  0.58544878  0.59467301     0.43800
H952        H  0.88324861  0.44028575  0.27389316     0.43800
C953        C  0.74803024  0.54401996  0.62835957    -0.05300
C954        C  0.74318911  0.50930498  0.61482251    -0.32700
C955        C  0.71372436  0.50138543  0.59333355     0.36500
C956        C  0.68949069  0.52878145  0.58413158    -0.05600
C957        C  0.69661419  0.56423900  0.59505328    -0.32600
C958        C  0.72529882  0.57182604  0.61743320     0.36400
H959        H  0.76004328  0.48743169  0.29003383     0.16800
O960        O  0.70814787  0.46659686  0.58238067    -0.60100
H961        H  0.67825440  0.58564683  0.58842307     0.16800
O962        O  0.72900622  0.60584478  0.63087408    -0.60200
H963        H  0.74468986  0.61909875  0.61450749     0.43800
H964        H  0.69704622  0.45384913  0.60205425     0.43800
C965        C  0.23519483  0.44834374  0.64702675    -0.05300
C966        C  0.20006597  0.43793822  0.65676255    -0.32700
C967        C  0.17020498  0.44918164  0.63778324     0.36500
C968        C  0.17554795  0.47053268  0.60860292    -0.05600
C969        C  0.21045761  0.48162267  0.59928646    -0.32600
C970        C  0.24029213  0.47069735  0.61835116     0.36400
H971        H  0.19584836  0.42085829  0.34539243     0.16800
O972        O  0.13603393  0.43811834  0.64710483    -0.60100
H973        H  0.21460813  0.49820556  0.57685582     0.16800
O974        O  0.27429141  0.48268144  0.60936064    -0.60200
H975        H  0.28104729  0.46815301  0.58908581     0.43800
H976        H  0.12727076  0.45742969  0.32930880     0.43800
C977        C  0.24836449  0.45348360  0.39198474    -0.05300
C978        C  0.23908706  0.43043858  0.41901048    -0.32700
C979        C  0.21060982  0.43861244  0.44135339     0.36500
C980        C  0.19039762  0.47037767  0.43673434    -0.05600
C981        C  0.20167165  0.49460783  0.41105349    -0.32600
C982        C  0.23025845  0.48634023  0.38880923     0.36400
H983        H  0.25304794  0.40515518  0.42185370     0.16800
O984        O  0.20187249  0.41442300  0.46652672    -0.60100
H985        H  0.18763646  0.51971909  0.40737996     0.16800
O986        O  0.24069396  0.51059859  0.36421090    -0.60200
H987        H  0.21923969  0.51378043  0.34930873     0.43800
H988        H  0.21657905  0.42200140  0.48658439     0.43800
C989        C  0.33107746  0.43866341  0.40065575    -0.05300
C990        C  0.34991829  0.41142970  0.41726123    -0.32700
C991        C  0.38048148  0.41961431  0.43701481     0.36500
C992        C  0.39357703  0.45552616  0.43923664    -0.05600
C993        C  0.37300951  0.48302406  0.42446456    -0.32600
C994        C  0.34180404  0.47480189  0.40548151     0.36400
H995        H  0.34211508  0.38347823  0.41327176     0.16800
O996        O  0.39880240  0.39186111  0.45174868    -0.60100
H997        H  0.38192653  0.51088001  0.42637105     0.16800
O998        O  0.32445451  0.50185983  0.38855423    -0.60200
H999        H  0.30792487  0.51250288  0.40567294     0.43800
H1000       H  0.38708445  0.38817512  0.47428004     0.43800
C1001       C  0.52283919  0.13702410  0.43676626    -0.05300
C1002       C  0.55178884  0.15260724  0.41840387    -0.32700
C1003       C  0.54657204  0.18274011  0.39778501     0.36500
C1004       C  0.51213585  0.19806512  0.39561623    -0.05600
C1005       C  0.48388298  0.18464915  0.41593091    -0.32600
C1006       C  0.48892741  0.15431101  0.43645723     0.36400
H1007       H  0.57821712  0.14027994  0.41843878     0.16800
O1008       O  0.57405144  0.19440281  0.37675636    -0.60100
H1009       H  0.45706985  0.19595543  0.41377371     0.16800
O1010       O  0.45985232  0.14052163  0.45412951    -0.60200
H1011       H  0.44776395  0.12343341  0.43811033     0.43800
H1012       H  0.59366716  0.20300529  0.39218067     0.43800
C1013       C  0.50464674  0.29810505  0.64628387    -0.05300
C1014       C  0.53965802  0.31280914  0.64425282    -0.32700
C1015       C  0.54670526  0.34306081  0.62414444     0.36500
C1016       C  0.51829334  0.35911588  0.60575511    -0.05600
C1017       C  0.48294275  0.34492378  0.60884524    -0.32600
C1018       C  0.47608090  0.31449844  0.62885095     0.36400
H1019       H  0.56169405  0.30044172  0.32413779     0.16800
O1020       O  0.58169828  0.35566755  0.62153398    -0.60100
H1021       H  0.46061308  0.35717322  0.59542865     0.16800
O1022       O  0.44138743  0.30107469  0.63149239    -0.60200
H1023       H  0.43732633  0.28673434  0.61040430     0.43800
H1024       H  0.59237228  0.34371737  0.27006629     0.43800
C1025       C  0.51349456  0.28215416  0.38886755    -0.05300
C1026       C  0.48363539  0.30160999  0.40039831    -0.32700
C1027       C  0.48814376  0.33108467  0.42251515     0.36500
C1028       C  0.52314165  0.34223362  0.43289552    -0.05600
C1029       C  0.55299408  0.32185199  0.42220810    -0.32600
C1030       C  0.54830417  0.29188967  0.40045426     0.36400
H1031       H  0.45677456  0.29452229  0.39120362     0.16800
O1032       O  0.45833976  0.35034812  0.43178867    -0.60100
H1033       H  0.58012873  0.32961669  0.43014514     0.16800
O1034       O  0.57780579  0.27270643  0.39003659    -0.60200
H1035       H  0.59283133  0.28959569  0.37630805     0.43800
H1036       H  0.44762960  0.33695285  0.45126191     0.43800
C1037       C  0.57799319  0.84234370  0.58273536    -0.05300
C1038       C  0.61377266  0.83101839  0.58782471    -0.32700
C1039       C  0.62110186  0.80175893  0.60897906     0.36500
C1040       C  0.59255092  0.78340602  0.62532677    -0.05600
C1041       C  0.55670075  0.79228189  0.61769319    -0.32600
C1042       C  0.54924793  0.82161287  0.59655665     0.36400
H1043       H  0.63626898  0.84601484  0.57690756     0.16800
O1044       O  0.65634557  0.79254955  0.61512238    -0.60100
H1045       H  0.53471093  0.77799917  0.29667784     0.16800
O1046       O  0.51387043  0.83002800  0.58987528    -0.60200
H1047       H  0.50578884  0.84309698  0.27746725     0.43800
H1048       H  0.66177996  0.77374406  0.59789682     0.43800
C1049       C  0.56322711  0.62846602  0.41983319    -0.05300
C1050       C  0.54699502  0.66127984  0.42757516    -0.32700
C1051       C  0.55522163  0.69191371  0.40836009     0.36500
C1052       C  0.58004746  0.68980910  0.38114054    -0.05600
C1053       C  0.59577054  0.65673782  0.37298510    -0.32600
C1054       C  0.58754690  0.62607756  0.39229024     0.36400
H1055       H  0.52832831  0.66322487  0.44884445     0.16800
O1056       O  0.53898980  0.72385348  0.41638831    -0.60100
H1057       H  0.61502178  0.65491710  0.35218610     0.16800
O1058       O  0.60327692  0.59393559  0.38406715    -0.60200
H1059       H  0.62468528  0.59224539  0.39926872     0.43800
H1060       H  0.51562420  0.72330834  0.40386967     0.43800
C1061       C  0.57660650  0.70162086  0.63624265    -0.05300
C1062       C  0.60168596  0.69216769  0.61100071    -0.32700
C1063       C  0.59487034  0.66322094  0.58867538     0.36500
C1064       C  0.56228566  0.64289900  0.59135841    -0.05600
C1065       C  0.53629358  0.65398977  0.61549724    -0.32600
C1066       C  0.54334873  0.68287188  0.63790843     0.36400
H1067       H  0.62742903  0.70643445  0.60959448     0.16800
O1068       O  0.62115405  0.65403942  0.56561266    -0.60100
H1069       H  0.51066448  0.63965131  0.61779302     0.16800
O1070       O  0.51753071  0.69292454  0.66114991    -0.60200
H1071       H  0.51460297  0.67238990  0.34338360     0.43800
H1072       H  0.61795883  0.67067917  0.54611232     0.43800
C1073       C  0.20106103  0.03082995  0.43612509    -0.05300
C1074       C  0.21006299  0.06745280  0.43172557    -0.32700
C1075       C  0.23973126  0.07794755  0.41180009     0.36500
C1076       C  0.26119658  0.05178271  0.39598108    -0.05600
C1077       C  0.25383700  0.01520092  0.40203892    -0.32600
C1078       C  0.22378994  0.00456555  0.42166078     0.36400
H1079       H  0.19318318  0.08819003  0.44261509     0.16800
O1080       O  0.24660669  0.11390985  0.40664859    -0.60100
H1081       H  0.27002035  0.99476735  0.38973787     0.16800
O1082       O  0.21690258  0.96853503  0.42644936    -0.60200
H1083       H  0.20534333  0.96003347  0.40495576     0.43800
H1084       H  0.26223727  0.12149134  0.42605722     0.43800
C1085       C  0.35929230  0.04250511  0.64357051    -0.05300
C1086       C  0.39479967  0.04779766  0.65568604    -0.32700
C1087       C  0.42441267  0.03617711  0.63634604     0.36500
C1088       C  0.41856612  0.01984926  0.60428051    -0.05600
C1089       C  0.38324316  0.01409767  0.59243529    -0.32600
C1090       C  0.35368755  0.02511680  0.61187084     0.36400
H1091       H  0.39945686  0.06186904  0.34626054     0.16800
O1092       O  0.45893676  0.04282092  0.64795044    -0.60100
H1093       H  0.37858216  0.00129910  0.56785044     0.16800
O1094       O  0.31929303  0.01808958  0.60004118    -0.60200
H1095       H  0.31546454  0.03547450  0.58124385     0.43800
H1096       H  0.46462549  0.02216333  0.32940682     0.43800
C1097       C  0.40112459  0.01544963  0.43173581    -0.05300
C1098       C  0.38944298  0.99187363  0.40543589    -0.32700
C1099       C  0.36060627  0.00088633  0.38377453     0.36500
C1100       C  0.34320606  0.03399834  0.38793408    -0.05600
C1101       C  0.35265635  0.05610011  0.41573890    -0.32600
C1102       C  0.38098225  0.04697981  0.43774795     0.36400
H1103       H  0.40331320  0.96680335  0.40084825     0.16800
O1104       O  0.34945254  0.97737097  0.35860005    -0.60100
H1105       H  0.33899791  0.08144884  0.41944884     0.16800
O1106       O  0.38952395  0.06994649  0.46415798    -0.60200
H1107       H  0.37345600  0.06246533  0.48323016     0.43800
H1108       H  0.37065019  0.97411449  0.34339801     0.43800
C1109       C  0.84560791  0.94793134  0.62500424    -0.05300
C1110       C  0.85677550  0.98386746  0.62101541    -0.32700
C1111       C  0.88714929  0.99263308  0.60114033     0.36500
C1112       C  0.90707028  0.96505183  0.58524808    -0.05600
C1113       C  0.89406098  0.92930365  0.58736171    -0.32600
C1114       C  0.86371426  0.92070625  0.60718597     0.36400
H1115       H  0.84386847  0.00495440  0.30217547     0.16800
O1116       O  0.89762575  0.02808191  0.59817624    -0.60100
H1117       H  0.90873498  0.90753868  0.57543695     0.16800
O1118       O  0.85379600  0.88526319  0.61136107    -0.60200
H1119       H  0.83446066  0.88077375  0.59422839     0.43800
H1120       H  0.91036181  0.03395435  0.28692132     0.43800
C1121       C  0.74381631  0.94301426  0.37431022    -0.05300
C1122       C  0.72958655  0.97777272  0.37358055    -0.32700
C1123       C  0.69963974  0.98665343  0.39358038     0.36500
C1124       C  0.68366395  0.96051747  0.41516547    -0.05600
C1125       C  0.69724882  0.92529840  0.41479215    -0.32600
C1126       C  0.72718749  0.91655083  0.39475923     0.36400
H1127       H  0.74279373  0.99868600  0.35878055     0.16800
O1128       O  0.68774459  0.02148724  0.39331171    -0.60100
H1129       H  0.68498690  0.90444019  0.43042956     0.16800
O1130       O  0.73986859  0.88199164  0.39509151    -0.60200
H1131       H  0.75361806  0.87991755  0.41675417     0.43800
H1132       H  0.67184640  0.02307436  0.37294612     0.43800
C1133       C  0.70171318  0.96410101  0.58690995    -0.05300
C1134       C  0.72372308  0.99295342  0.59844260    -0.32700
C1135       C  0.75323836  0.98711601  0.62032954     0.36500
C1136       C  0.76090833  0.95211448  0.63139753    -0.05600
C1137       C  0.73971827  0.92316461  0.61923612    -0.32600
C1138       C  0.71039572  0.92883450  0.59719552     0.36400
H1139       H  0.71748766  0.02029800  0.59115854     0.16800
O1140       O  0.77278959  0.01595643  0.63274868    -0.60100
H1141       H  0.74513422  0.89616788  0.62811383     0.16800
O1142       O  0.68919190  0.89991997  0.58758257    -0.60200
H1143       H  0.67003561  0.89815485  0.60528521     0.43800
H1144       H  0.78648077  0.02553744  0.61289193     0.43800
C1145       C  0.09985750  0.18880001  0.65228617    -0.05300
C1146       C  0.12730414  0.17610989  0.63093744    -0.32700
C1147       C  0.12140001  0.14612084  0.60993029     0.36500
C1148       C  0.08737809  0.12818091  0.61003171    -0.05600
C1149       C  0.06024497  0.14047453  0.63227095    -0.32600
C1150       C  0.06609591  0.17080950  0.65288038     0.36400
H1151       H  0.15327747  0.19004107  0.63001239     0.16800
O1152       O  0.14886037  0.13525874  0.58885971    -0.60100
H1153       H  0.03377845  0.12750682  0.63269993     0.16800
O1154       O  0.03790666  0.18386319  0.67182068    -0.60200
H1155       H  0.02558231  0.20122555  0.65670457     0.43800
H1156       H  0.16451962  0.12008615  0.60332194     0.43800
C1157       C  0.09151250  0.20392650  0.39616794    -0.05300
C1158       C  0.05750387  0.19879580  0.41142301    -0.32700
C1159       C  0.05102551  0.16929423  0.43308509     0.36500
C1160       C  0.07919210  0.14515567  0.44057187    -0.05600
C1161       C  0.11384712  0.15204283  0.42713395    -0.32600
C1162       C  0.11996959  0.18092637  0.40488339     0.36400
H1163       H  0.03549738  0.21654884  0.40511635     0.16800
O1164       O  0.01719357  0.16435186  0.44691582    -0.60100
H1165       H  0.13590052  0.13396885  0.43255677     0.16800
O1166       O  0.15387898  0.18650413  0.39145585    -0.60200
H1167       H  0.15600258  0.16874002  0.37260357     0.43800
H1168       H  0.00218632  0.15386549  0.42825411     0.43800
C1169       C  0.07362550  0.34788303  0.44311926    -0.05300
C1170       C  0.10987622  0.33669804  0.44156612    -0.32700
C1171       C  0.11947303  0.30690440  0.42194192     0.36500
C1172       C  0.09274158  0.28765548  0.40379068    -0.05600
C1173       C  0.05625929  0.29658295  0.40765146    -0.32600
C1174       C  0.04651429  0.32658823  0.42709658     0.36400
H1175       H  0.13123833  0.35228567  0.45388674     0.16800
O1176       O  0.15537162  0.29863351  0.41832348    -0.60100
H1177       H  0.03556014  0.28212837  0.39328029     0.16800
O1178       O  0.01060895  0.33531567  0.42949220    -0.60200
H1179       H  0.00514409  0.34863286  0.40822936     0.43800
H1180       H  0.15898451  0.27715976  0.43284357     0.43800
C1181       C  0.03031010  0.85884434  0.42366677    -0.05300
C1182       C  0.05659070  0.83247659  0.41866677    -0.32700
C1183       C  0.04859279  0.80170763  0.39918481     0.36500
C1184       C  0.01444441  0.79795622  0.38356754    -0.05600
C1185       C  0.98861389  0.82482496  0.38755232    -0.32600
C1186       C  0.99617199  0.85500430  0.40791417     0.36400
H1187       H  0.08280497  0.83507252  0.43098763     0.16800
O1188       O  0.07342245  0.77459674  0.39685505    -0.60100
H1189       H  0.96220164  0.82184147  0.37568626     0.16800
O1190       O  0.97037787  0.88094445  0.41179655    -0.60200
H1191       H  0.95243981  0.87058964  0.42799828     0.43800
H1192       H  0.09492699  0.78530157  0.38538963     0.43800
C1193       C  0.03388509  0.84536154  0.59721184    -0.05300
C1194       C  0.00168784  0.82500748  0.59256421    -0.32700
C1195       C  0.99339181  0.79535638  0.61357804     0.36500
C1196       C  0.01741762  0.78525646  0.63968645    -0.05600
C1197       C  0.05023012  0.80419511  0.64323546    -0.32600
C1198       C  0.05846940  0.83404994  0.62277303     0.36400
H1199       H  0.98226174  0.83267412  0.57325641     0.16800
O1200       O  0.96111646  0.77725732  0.27576203    -0.60100
H1201       H  0.06932606  0.79626133  0.66263013     0.16800
O1202       O  0.09057727  0.85212600  0.62849862    -0.60200
H1203       H  0.08614217  0.86760273  0.64868982     0.43800
H1204       H  0.94463739  0.78728933  0.29330819     0.43800
C1205       C  0.00027409  0.70260474  0.62911180    -0.05300
C1206       C  0.97088215  0.68277414  0.61585863    -0.32700
C1207       C  0.97653116  0.65331739  0.59424461     0.36500
C1208       C  0.01216957  0.64298152  0.58614990    -0.05600
C1209       C  0.04142660  0.66440818  0.59768916    -0.32600
C1210       C  0.03562958  0.69425052  0.61879180     0.36400
H1211       H  0.94359004  0.68868490  0.62415025     0.16800
O1212       O  0.94715408  0.63332799  0.58333134    -0.60100
H1213       H  0.06899978  0.65700472  0.59169076     0.16800
O1214       O  0.06487932  0.71247486  0.63232144    -0.60200
H1215       H  0.07114804  0.73116371  0.61521570     0.43800
H1216       H  0.94247553  0.61552904  0.60166908     0.43800
N1217       N  0.00709322  0.75878686  0.99828037    -0.03300
C1218       C  0.99487218  0.72460168  0.99319854    -0.00700
C1219       C  0.98422716  0.70926786  0.69056926    -0.23600
C1220       C  0.99034363  0.73474982  0.71549396    -0.23800
C1221       C  0.00435832  0.76460987  0.69908522    -0.00800
H1222       H  0.97515560  0.68176555  0.69460383     0.13000
H1223       H  0.98579307  0.73164600  0.74264533     0.13000
N1224       N  0.09667335  0.23043211  0.70307784    -0.03300
C1225       C  0.10309174  0.26604688  0.70748757    -0.00700
C1226       C  0.11579593  0.28151111  0.67769468    -0.23600
C1227       C  0.11749858  0.25433115  0.98729997    -0.23800
C1228       C  0.10538163  0.22343242  0.67011967    -0.00800
H1229       H  0.12199353  0.30971321  0.00681033     0.13000
H1230       H  0.12528292  0.25705322  0.96077260     0.13000
N1231       N  0.78699203  0.94579292  0.99144583    -0.03300
C1232       C  0.82260564  0.93848369  0.98764548    -0.00700
C1233       C  0.83664898  0.92475326  0.68415609    -0.23600
C1234       C  0.80871258  0.92334454  0.70723835    -0.23800
C1235       C  0.77859511  0.93622565  0.69051963    -0.00800
H1236       H  0.86456851  0.91782659  0.68898028     0.13000
H1237       H  0.81055200  0.91527511  0.73371290     0.13000
N1238       N  0.31905245  0.04747206  0.69563842    -0.03300
C1239       C  0.28599323  0.06175616  0.70125549    -0.00700
C1240       C  0.27416193  0.07964352  0.67251806    -0.23600
C1241       C  0.30058222  0.07598813  0.98152293    -0.23800
C1242       C  0.32784318  0.05600272  0.66294669    -0.00800
H1243       H  0.24799142  0.09181874  0.66879095     0.13000
H1244       H  0.29953345  0.08581039  0.95555217     0.13000
N1245       N  0.58690673  0.72794710  0.99493620    -0.03300
C1246       C  0.59971371  0.76170296  0.98914887    -0.00700
C1247       C  0.61188788  0.77736554  0.68602098    -0.23600
C1248       C  0.60622110  0.75239188  0.71131912    -0.23800
C1249       C  0.59084239  0.72248110  0.69569137    -0.00800
H1250       H  0.62181958  0.80469802  0.68949783     0.13000
H1251       H  0.61213308  0.75583620  0.73823326     0.13000
N1252       N  0.50822226  0.25576663  0.69574599    -0.03300
C1253       C  0.50297249  0.21986897  0.69922488    -0.00700
C1254       C  0.49156652  0.20456866  0.66874986    -0.23600
C1255       C  0.48946774  0.23208531  0.97895206    -0.23800
C1256       C  0.49931841  0.26314774  0.66300483    -0.00800
H1257       H  0.48652776  0.17626007  0.66369523     0.13000
H1258       H  0.48258126  0.22965592  0.95215002     0.13000
N1259       N  0.27372828  0.44141130  0.69967257    -0.03300
C1260       C  0.30741766  0.42866866  0.70516667    -0.00700
C1261       C  0.32137067  0.41414853  0.67547038    -0.23600
C1262       C  0.29564165  0.41837325  0.98407160    -0.23800
C1263       C  0.26679254  0.43538523  0.66607004    -0.00800
H1264       H  0.34852407  0.40410292  0.00514742     0.13000
H1265       H  0.29821173  0.41119667  0.95736475     0.13000
N1266       N  0.80428728  0.53919075  0.99805967    -0.03300
C1267       C  0.76922348  0.54838708  0.99327934    -0.00700
C1268       C  0.75285821  0.55486382  0.69111544    -0.23600
C1269       C  0.77847876  0.54917368  0.71591353    -0.23800
C1270       C  0.80971347  0.53974498  0.69901311    -0.00800
H1271       H  0.72456841  0.56067495  0.69541591     0.13000
H1272       H  0.77453422  0.55076926  0.74327151     0.13000
Zr1273     Zr  0.58811024  0.54826696  0.84390438     2.17500
O1274       O  0.64520551  0.56964620  0.81942859    -0.51100
O1275       O  0.57887169  0.60007277  0.88135951    -0.74400
O1276       O  0.57906296  0.59251386  0.79933509    -0.81100
O1277       O  0.63883637  0.49061720  0.90765734    -0.82900
O1278       O  0.52858983  0.57750550  0.76852292    -0.78500
O1279       O  0.64196633  0.54398524  0.87937584    -0.90100
O1280       O  0.52771754  0.59000528  0.91201659    -0.76100
O1281       O  0.52434578  0.55684709  0.84222314    -0.85600
O1282       O  0.56522751  0.52419824  0.89588240    -0.85300
O1283       O  0.56708403  0.51599228  0.79413314    -0.72000
O1284       O  0.60511910  0.48608432  0.84377491    -0.84200
Zr1285     Zr  0.49554011  0.43756696  0.84559694     2.26400
Zr1286     Zr  0.50263036  0.52345146  0.79368923     2.06300
Zr1287     Zr  0.58074423  0.46207231  0.89552572     2.10000
Zr1288     Zr  0.50166310  0.53255935  0.89414960     1.78800
O1289       O  0.62440215  0.41351994  0.89534282    -0.93000
O1290       O  0.45463990  0.57627333  0.88248532    -0.40800
O1291       O  0.51663517  0.46996440  0.89507509    -0.77400
O1292       O  0.47855329  0.49982126  0.84585133    -0.96100
O1293       O  0.51847590  0.46137138  0.79351566    -0.89400
O1294       O  0.55928354  0.42911279  0.84696082    -0.92300
C1295       C  0.55574891  0.60912058  0.90429362     1.01500
C1296       C  0.65480256  0.52041072  0.89988878     1.14400
C1297       C  0.55640443  0.59745556  0.77500202     1.05200
O1298       O  0.45540319  0.56854804  0.79178374    -0.94400
O1299       O  0.44509196  0.49378579  0.78002792    -0.90200
O1300       O  0.44271657  0.44098456  0.80904610    -0.83300
C1301       C  0.42939848  0.46391058  0.78826371     1.11800
O1302       O  0.63760558  0.47439685  0.76701951    -0.96400
Zr1303     Zr  0.58225591  0.45353307  0.79516152     1.88900
O1304       O  0.50502453  0.38587438  0.80785465    -0.73000
O1305       O  0.50344294  0.51283110  0.73220729    -0.52300
O1306       O  0.57454549  0.45608755  0.73336586    -0.97000
O1307       O  0.63209768  0.41246087  0.80516140    -0.50600
O1308       O  0.55746875  0.39508865  0.77856058    -0.73500
C1309       C  0.52900543  0.37639478  0.78582636     0.98800
O1310       O  0.43922370  0.41735768  0.87292151    -0.62400
O1311       O  0.58302170  0.47017787  0.95736776    -0.57200
O1312       O  0.50374441  0.39348023  0.89044450    -0.93900
O1313       O  0.55207212  0.41086714  0.92280607    -0.92300
O1314       O  0.50699267  0.52894049  0.95610011    -0.92600
O1315       O  0.44471661  0.51454982  0.92093625    -0.91400
C1316       C  0.52513787  0.38986363  0.91604962     1.17600
H1317       H  0.57588812  0.53620012  0.91542975     0.33600
H1318       H  0.45252234  0.50169922  0.84612530     0.44400
H1319       H  0.56500523  0.40392496  0.84902889     0.38000
H1320       H  0.57772148  0.52628481  0.77382683     0.34400
H1321       H  0.44818929  0.58621379  0.90515201     0.26200
H1322       H  0.49042038  0.53345797  0.72231184     0.32200
H1323       H  0.58453079  0.43321062  0.72464821     0.38100
H1324       H  0.49816679  0.55235054  0.96469383     0.32500
H1325       H  0.60266812  0.45425305  0.96509776     0.31400
H1326       H  0.63239664  0.41159046  0.91941162     0.33100
H1327       H  0.62105238  0.39135076  0.81673063     0.32100
H1328       H  0.44699392  0.48834134  0.92480589     0.36100
H1329       H  0.44341278  0.41987747  0.89780656     0.28800
H1330       H  0.64521082  0.59616173  0.82222134     0.33000
H1331       H  0.64522427  0.45429904  0.75207778     0.35900
H1332       H  0.59269975  0.49487287  0.96111866     0.28500
H1333       H  0.42122730  0.43622806  0.86815687     0.41400
H1334       H  0.43858222  0.56182105  0.81046557     0.31400
H1335       H  0.46731103  0.59640639  0.87077946     0.39000
H1336       H  0.64700271  0.42442316  0.82304445     0.30900
H1337       H  0.52901135  0.51674213  0.72537137     0.30900
H1338       H  0.64305360  0.56542067  0.79450131     0.31200
Zr1339     Zr  0.60321106  0.94145065  0.84218317     2.17500
O1340       O  0.62122768  0.88324572  0.81919503    -0.51100
O1341       O  0.65639725  0.94789063  0.87903841    -0.74400
O1342       O  0.64715597  0.94754074  0.79656812    -0.81100
O1343       O  0.54414074  0.89526906  0.90869552    -0.82900
O1344       O  0.63560681  0.99811263  0.76633067    -0.78500
O1345       O  0.59509689  0.88810600  0.87698570    -0.90100
O1346       O  0.65158851  0.00084473  0.90771555    -0.76100
O1347       O  0.61657158  0.00432949  0.83939605    -0.85600
O1348       O  0.58217496  0.96604520  0.89455074    -0.85300
O1349       O  0.57102401  0.96243155  0.79270062    -0.72000
O1350       O  0.53957704  0.92735211  0.84388554    -0.84200
Zr1351     Zr  0.49856989  0.03775091  0.84478926     2.26400
Zr1352     Zr  0.58304023  0.02609952  0.79140733     2.06300
Zr1353     Zr  0.51858665  0.95360530  0.89606310     2.10000
Zr1354     Zr  0.59488373  0.02872657  0.89159059     1.78800
O1355       O  0.46885665  0.91007593  0.90030011    -0.93000
O1356       O  0.64029879  0.07492807  0.87875810    -0.40800
O1357       O  0.53085182  0.01694464  0.89404733    -0.77400
O1358       O  0.56229534  0.05200465  0.84375132    -0.96100
O1359       O  0.51962304  0.01298602  0.79244919    -0.89400
O1360       O  0.48566207  0.97486419  0.84770518    -0.92300
C1361       C  0.66797997  0.97145142  0.90075551     1.01500
C1362       C  0.57184387  0.87726778  0.89917518     1.14400
C1363       C  0.65375126  0.96956960  0.77210265     1.05200
O1364       O  0.62960823  0.07282123  0.78573839    -0.94400
O1365       O  0.55566356  0.08344521  0.77770176    -0.90200
O1366       O  0.50453794  0.09074230  0.80899395    -0.83300
C1367       C  0.52782288  0.10153555  0.78682296     1.11800
O1368       O  0.51999560  0.89176560  0.76970519    -0.96400
Zr1369     Zr  0.50720047  0.95007552  0.79561233     1.88900
O1370       O  0.44641167  0.03083143  0.80690597    -0.73000
O1371       O  0.57336519  0.02497520  0.72979602    -0.52300
O1372       O  0.50915636  0.95142738  0.73336345    -0.97000
O1373       O  0.46005241  0.90614613  0.81023723    -0.54200
O1374       O  0.45201017  0.97884703  0.77697384    -0.73500
C1375       C  0.43518538  0.00783313  0.78449552     0.98800
O1376       O  0.48260259  0.09364057  0.87394363    -0.62400
O1377       O  0.52776910  0.95321569  0.95776355    -0.57200
O1378       O  0.45181693  0.02959660  0.88758943    -0.93900
O1379       O  0.46999398  0.98573065  0.92405603    -0.92300
O1380       O  0.59061950  0.02389106  0.95352615    -0.92600
O1381       O  0.58476959  0.08632955  0.91972079    -0.91400
C1382       C  0.44879139  0.01107057  0.91505111     1.17600
H1383       H  0.59409421  0.95522392  0.91387469     0.33600
H1384       H  0.56599066  0.07779125  0.84358684     0.44400
H1385       H  0.46003742  0.97025250  0.85035678     0.38000
H1386       H  0.58020658  0.95107498  0.77227366     0.34400
H1387       H  0.65562874  0.07644516  0.89949961     0.26200
H1388       H  0.59479834  0.03763525  0.72016341     0.32200
H1389       H  0.51103170  0.97729955  0.72751280     0.38100
H1390       H  0.61524252  0.02993726  0.96203466     0.32500
H1391       H  0.51739670  0.92988886  0.96543619     0.31400
H1392       H  0.46221928  0.91002576  0.92480718     0.33100
H1393       H  0.43805662  0.92031650  0.81482724     0.32100
H1394       H  0.55943165  0.09229256  0.91400019     0.36100
H1395       H  0.48326192  0.08809716  0.89865311     0.28800
H1396       H  0.64797342  0.88284580  0.82107007     0.33000
H1397       H  0.49746706  0.88430510  0.75771282     0.35900
H1398       H  0.55418943  0.95083323  0.96115412     0.28500
H1399       H  0.50376554  0.10997557  0.87076956     0.41400
H1400       H  0.62537677  0.08945976  0.80510475     0.31400
H1401       H  0.65608494  0.06387299  0.86129666     0.39000
H1402       H  0.46729612  0.89678265  0.83283461     0.30900
H1403       H  0.57645508  0.99948851  0.72301895     0.30900
H1404       H  0.61614318  0.88430524  0.79437318     0.31200
Zr1405     Zr  0.00980788  0.93993837  0.84924977     2.17500
O1406       O  0.95123200  0.91720273  0.82908068    -0.51100
O1407       O  0.01731481  0.88835592  0.88758997    -0.74400
O1408       O  0.01544976  0.89668980  0.80292461    -0.81100
O1409       O  0.96075402  0.00066273  0.91182903    -0.82900
O1410       O  0.06796931  0.90741960  0.77409720    -0.78500
O1411       O  0.95502735  0.94837564  0.88191721    -0.90100
O1412       O  0.06966305  0.89728735  0.91670685    -0.76100
O1413       O  0.07316234  0.92921536  0.84636421    -0.85600
O1414       O  0.03428216  0.96353697  0.90109647    -0.85300
O1415       O  0.03019277  0.97183041  0.79917844    -0.72000
O1416       O  0.99504617  0.00279620  0.84945514    -0.84200
Zr1417     Zr  0.10573545  0.04770506  0.84982537     2.26400
Zr1418     Zr  0.09435762  0.96215219  0.79748267     2.06300
Zr1419     Zr  0.02071932  0.02618132  0.90116356     2.10000
Zr1420     Zr  0.09758212  0.95331691  0.89795815     1.78800
O1421       O  0.97866891  0.07589409  0.90614114    -0.93000
O1422       O  0.14390135  0.90905874  0.88557327    -0.40800
O1423       O  0.08455616  0.01636501  0.89963466    -0.77400
O1424       O  0.12059506  0.98496149  0.84918338    -0.96100
O1425       O  0.08092783  0.02475239  0.79808409    -0.89400
O1426       O  0.04239678  0.05851324  0.85255455    -0.92300
C1427       C  0.04081737  0.87893642  0.91008121     1.01500
C1428       C  0.94305296  0.97214538  0.90274185     1.14400
C1429       C  0.03853953  0.88964414  0.77944585     1.05200
O1430       O  0.14199734  0.91772219  0.79283486    -0.94400
O1431       O  0.15084502  0.99172720  0.78048653    -0.90200
O1432       O  0.15608485  0.04418343  0.81035286    -0.83300
C1433       C  0.16729576  0.02145495  0.78807182     1.11800
O1434       O  0.96281204  0.01865396  0.76953522    -0.96400
Zr1435     Zr  0.01773861  0.03512577  0.80089663     1.88900
O1436       O  0.09772035  0.09985733  0.81285918    -0.73000
O1437       O  0.08959699  0.97118948  0.73599187    -0.52300
O1438       O  0.02863399  0.03497586  0.73945157    -0.97000
O1439       O  0.96757742  0.07525256  0.81299141    -0.54200
O1440       O  0.04271165  0.09425560  0.78706821    -0.73500
C1441       C  0.07261619  0.11122680  0.79294803     0.98800
O1442       O  0.16379219  0.06226653  0.87683828    -0.62400
O1443       O  0.01957485  0.01440112  0.96235215    -0.57200
O1444       O  0.10015020  0.09292344  0.89421118    -0.93900
O1445       O  0.05177654  0.07742164  0.92713074    -0.92300
O1446       O  0.09563338  0.95727366  0.96008607    -0.92600
O1447       O  0.15605727  0.96796255  0.92368950    -0.91400
C1448       C  0.07937206  0.09750735  0.92010543     1.17600
H1449       H  0.02355343  0.95210838  0.92086831     0.33600
H1450       H  0.14654602  0.98226105  0.84858101     0.44400
H1451       H  0.03752692  0.08386667  0.85500922     0.38000
H1452       H  0.01874466  0.96190630  0.77900388     0.34400
H1453       H  0.14467435  0.89368045  0.90616987     0.26200
H1454       H  0.10527747  0.95259655  0.72579077     0.32200
H1455       H  0.01971340  0.05845039  0.73127030     0.38100
H1456       H  0.10522756  0.93403675  0.96815414     0.32500
H1457       H  0.04489497  0.01832259  0.96999358     0.31400
H1458       H  0.97002929  0.07496278  0.93006802     0.33100
H1459       H  0.97888298  0.09698651  0.82344346     0.32100
H1460       H  0.15892996  0.99429899  0.92067528     0.36100
H1461       H  0.15937113  0.05993376  0.90168134     0.28800
H1462       H  0.95278648  0.89058433  0.82918650     0.33000
H1463       H  0.95717737  0.03977987  0.75520792     0.35900
H1464       H  0.00613362  0.03479883  0.97232972     0.28500
H1465       H  0.17955961  0.04162340  0.87152787     0.41400
H1466       H  0.14457439  0.91336527  0.76799194     0.31400
H1467       H  0.13317616  0.89333486  0.86764513     0.39000
H1468       H  0.95424456  0.06356809  0.83197621     0.30900
H1469       H  0.06464116  0.96342527  0.72992131     0.30900
H1470       H  0.94998657  0.92398734  0.80468624     0.31200
Zr1471     Zr  0.98660670  0.54048306  0.84903687     2.17500
O1472       O  0.96275832  0.59801442  0.83012450    -0.51100
O1473       O  0.93453093  0.53166772  0.88711113    -0.74400
O1474       O  0.94347156  0.53381056  0.80230658    -0.81100
O1475       O  0.04827967  0.59169537  0.91135549    -0.82900
O1476       O  0.95202757  0.47976089  0.77622275    -0.78500
O1477       O  0.99541053  0.59532719  0.88194806    -0.90100
O1478       O  0.94419273  0.48147636  0.91824793    -0.76100
O1479       O  0.97525645  0.47719037  0.84887394    -0.85600
O1480       O  0.01153057  0.51868293  0.90091202    -0.85300
O1481       O  0.01751838  0.51873268  0.79901197    -0.72000
O1482       O  0.04987602  0.55664491  0.84721927    -0.84200
Zr1483     Zr  0.09441486  0.44754354  0.85064407     2.26400
Zr1484     Zr  0.00693820  0.45480094  0.79994347     2.06300
Zr1485     Zr  0.07464349  0.53379558  0.89911444     2.10000
Zr1486     Zr  0.00087055  0.45545028  0.90050164     1.78800
O1487       O  0.12334572  0.57854883  0.89596284    -0.93000
O1488       O  0.95653898  0.40720201  0.89107034    -0.40800
O1489       O  0.06424690  0.47011528  0.90035030    -0.77400
O1490       O  0.03121604  0.43112825  0.85183830    -0.96100
O1491       O  0.07017779  0.46931409  0.79849100    -0.89400
O1492       O  0.10594474  0.51063746  0.85064513    -0.92300
C1493       C  0.92525998  0.50886171  0.91031476     1.01500
C1494       C  0.01923655  0.60795622  0.90281315     1.14400
C1495       C  0.93532819  0.50956986  0.78002542     1.05200
O1496       O  0.96070396  0.40739578  0.79911125    -0.94400
O1497       O  0.03576698  0.39836969  0.78517818    -0.90200
O1498       O  0.08894410  0.39529719  0.81414108    -0.83300
C1499       C  0.06535051  0.38259929  0.79314191     1.11800
O1500       O  0.06594791  0.58821143  0.76981906    -0.96400
Zr1501     Zr  0.08124252  0.53241228  0.79880275     1.88900
O1502       O  0.14651590  0.45500055  0.81292536    -0.73000
O1503       O  0.01341510  0.45438404  0.73796521    -0.52300
O1504       O  0.07501930  0.52350234  0.73730502    -0.97000
O1505       O  0.12593095  0.58036235  0.80851233    -0.54200
O1506       O  0.13831449  0.50551150  0.78169827    -0.73500
C1507       C  0.15650529  0.47752560  0.78979326     0.98800
O1508       O  0.11330444  0.39179272  0.87824231    -0.62400
O1509       O  0.06907273  0.53804269  0.96108202    -0.57200
O1510       O  0.13979214  0.45609621  0.89464543    -0.93900
O1511       O  0.12652654  0.50621384  0.92575734    -0.92300
O1512       O  0.00452328  0.46125476  0.96243670    -0.92600
O1513       O  0.01858977  0.40011745  0.92885015    -0.91400
C1514       C  0.14539190  0.47828000  0.91930370     1.17600
H1515       H  0.00016609  0.52983838  0.92043050     0.33600
H1516       H  0.02836410  0.40526665  0.85232086     0.44400
H1517       H  0.13158138  0.51589433  0.85227273     0.38000
H1518       H  0.00737757  0.52903661  0.77856216     0.34400
H1519       H  0.94519048  0.40327724  0.91368953     0.26200
H1520       H  0.99300178  0.43913098  0.72962838     0.32200
H1521       H  0.09951597  0.52809692  0.72785516     0.38100
H1522       H  0.98096631  0.45187818  0.97094864     0.32500
H1523       H  0.07683491  0.56294590  0.96692361     0.31400
H1524       H  0.12686235  0.58680768  0.91983109     0.33100
H1525       H  0.14746414  0.56836394  0.81802943     0.32100
H1526       H  0.04462089  0.39762505  0.92341540     0.36100
H1527       H  0.11114056  0.39619553  0.90311704     0.28800
H1528       H  0.93604400  0.59520817  0.83017184     0.33000
H1529       H  0.08619976  0.59314760  0.75385260     0.35900
H1530       H  0.04274243  0.53738963  0.96579391     0.28500
H1531       H  0.09379932  0.37386898  0.87356361     0.41400
H1532       H  0.96640102  0.39208303  0.81899907     0.31400
H1533       H  0.93725817  0.41825846  0.87716373     0.39000
H1534       H  0.11612281  0.59445197  0.82784319     0.30900
H1535       H  0.00732447  0.47905298  0.73063439     0.30900
H1536       H  0.96963578  0.60005022  0.80575101     0.31200
C1537       C  0.84350903  0.53059955  0.71669372    -0.05300
C1538       C  0.87116747  0.55656139  0.71987688    -0.32700
C1539       C  0.90147704  0.54991248  0.74033988     0.36500
C1540       C  0.90461054  0.51659521  0.75714799    -0.05600
C1541       C  0.87760430  0.49008411  0.75264870    -0.32600
C1542       C  0.84680156  0.49721232  0.73312554     0.36400
H1543       H  0.86871926  0.58237445  0.70731804     0.16800
O1544       O  0.92832524  0.57568096  0.74311653    -0.60100
H1545       H  0.87975556  0.46432490  0.76535892     0.16800
O1546       O  0.81994697  0.47147957  0.73028448    -0.60200
H1547       H  0.80423386  0.47509578  0.75051040     0.43800
H1548       H  0.91878032  0.59391155  0.75922590     0.43800
C1549       C  0.83090836  0.52990257  0.97266417    -0.05300
C1550       C  0.84832668  0.49676653  0.97469527    -0.32700
C1551       C  0.87799298  0.48902002  0.95384707     0.36500
C1552       C  0.89115841  0.51484947  0.93012545    -0.05600
C1553       C  0.87240492  0.54751689  0.92707715    -0.32600
C1554       C  0.84253465  0.55505006  0.94808322     0.36400
H1555       H  0.83942237  0.47713305  0.65999310     0.16800
O1556       O  0.89457555  0.45649745  0.95796824    -0.60100
H1557       H  0.88167106  0.56791912  0.90928192     0.16800
O1558       O  0.82657247  0.58808724  0.94615180    -0.60200
H1559       H  0.80776111  0.58541875  0.92819948     0.43800
H1560       H  0.88302460  0.44025696  0.60724920     0.43800
C1561       C  0.74790377  0.54387605  0.96166595    -0.05300
C1562       C  0.74309211  0.50920013  0.94803216    -0.32700
C1563       C  0.71370667  0.50136321  0.92642468     0.36500
C1564       C  0.68951920  0.52880142  0.91722442    -0.05600
C1565       C  0.69659793  0.56421605  0.92827514    -0.32600
C1566       C  0.72520469  0.57171991  0.95076558     0.36400
H1567       H  0.76020745  0.48758047  0.62341985     0.16800
O1568       O  0.70814328  0.46660807  0.91536415    -0.60100
H1569       H  0.67824719  0.58564140  0.92167234     0.16800
O1570       O  0.72886306  0.60568453  0.96434075    -0.60200
H1571       H  0.74388445  0.61925687  0.94766351     0.43800
H1572       H  0.69699779  0.45379853  0.93497986     0.43800
C1573       C  0.23523654  0.44826688  0.98040997    -0.05300
C1574       C  0.20009660  0.43789288  0.99014250    -0.32700
C1575       C  0.17024753  0.44912295  0.97113227     0.36500
C1576       C  0.17561002  0.47044607  0.94193387    -0.05600
C1577       C  0.21053388  0.48148959  0.93261340    -0.32600
C1578       C  0.24035572  0.47056519  0.95169900     0.36400
H1579       H  0.19587448  0.42064300  0.67867725     0.16800
O1580       O  0.13607050  0.43805828  0.98043301    -0.60100
H1581       H  0.21470559  0.49803921  0.91016425     0.16800
O1582       O  0.27436815  0.48249294  0.94268787    -0.60200
H1583       H  0.28111163  0.46790699  0.92244657     0.43800
H1584       H  0.12717896  0.45721890  0.66265359     0.43800
C1585       C  0.24838334  0.45334012  0.72531231    -0.05300
C1586       C  0.23906983  0.43028705  0.75232014    -0.32700
C1587       C  0.21061254  0.43849759  0.77467395     0.36500
C1588       C  0.19043231  0.47028598  0.77005665    -0.05600
C1589       C  0.20173318  0.49450863  0.74438202    -0.32600
C1590       C  0.23032123  0.48622036  0.72215010     0.36400
H1591       H  0.25300110  0.40498592  0.75515513     0.16800
O1592       O  0.20188184  0.41433890  0.79987593    -0.60100
H1593       H  0.18772709  0.51963655  0.74071195     0.16800
O1594       O  0.24080852  0.51048706  0.69757973    -0.60200
H1595       H  0.21939833  0.51363475  0.68261434     0.43800
H1596       H  0.21663914  0.42190730  0.81990442     0.43800
C1597       C  0.33110400  0.43840948  0.73403169    -0.05300
C1598       C  0.35001304  0.41111776  0.75049579    -0.32700
C1599       C  0.38062160  0.41924397  0.77021760     0.36500
C1600       C  0.39373256  0.45514013  0.77248789    -0.05600
C1601       C  0.37310429  0.48268526  0.75788248    -0.32600
C1602       C  0.34180539  0.47453437  0.73901082     0.36400
H1603       H  0.34221192  0.38317771  0.74643261     0.16800
O1604       O  0.39894353  0.39146645  0.78490202    -0.60100
H1605       H  0.38200768  0.51053880  0.75988252     0.16800
O1606       O  0.32429457  0.50168123  0.72236999    -0.60200
H1607       H  0.30790991  0.51220986  0.73967899     0.43800
H1608       H  0.38718135  0.38768982  0.80740053     0.43800
C1609       C  0.52250635  0.13694322  0.77013706    -0.05300
C1610       C  0.55150498  0.15270233  0.75198310    -0.32700
C1611       C  0.54628696  0.18285866  0.73140849     0.36500
C1612       C  0.51182016  0.19809646  0.72914372    -0.05600
C1613       C  0.48348505  0.18447932  0.74924208    -0.32600
C1614       C  0.48850281  0.15404783  0.76964756     0.36400
H1615       H  0.57798479  0.14048353  0.75212620     0.16800
O1616       O  0.57380976  0.19459874  0.71047483    -0.60100
H1617       H  0.45663615  0.19567733  0.74695824     0.16800
O1618       O  0.45932742  0.13996649  0.78697201    -0.60200
H1619       H  0.44733490  0.12314158  0.77064440     0.43800
H1620       H  0.59317777  0.20360504  0.72597358     0.43800
C1621       C  0.50481282  0.29805896  0.97960661    -0.05300
C1622       C  0.53971396  0.31306971  0.97785163    -0.32700
C1623       C  0.54666389  0.34342294  0.95784277     0.36500
C1624       C  0.51827945  0.35922189  0.93919910    -0.05600
C1625       C  0.48302925  0.34470241  0.94200120    -0.32600
C1626       C  0.47626087  0.31421611  0.96195176     0.36400
H1627       H  0.56196088  0.29967496  0.65682562     0.16800
O1628       O  0.58155078  0.35641522  0.95562726    -0.60100
H1629       H  0.46070377  0.35673665  0.92839968     0.16800
O1630       O  0.44165828  0.30049643  0.96432894    -0.60200
H1631       H  0.43783892  0.28626151  0.94313838     0.43800
H1632       H  0.59221692  0.34240153  0.60195750     0.43800
C1633       C  0.51353580  0.28219798  0.72235862    -0.05300
C1634       C  0.48365744  0.30143189  0.73418136    -0.32700
C1635       C  0.48818138  0.33092006  0.75627652     0.36500
C1636       C  0.52318928  0.34219996  0.76648606    -0.05600
C1637       C  0.55307987  0.32206291  0.75547794    -0.32600
C1638       C  0.54840833  0.29220910  0.73357916     0.36400
H1639       H  0.45676005  0.29420553  0.72517606     0.16800
O1640       O  0.45836910  0.35011637  0.76563653    -0.60100
H1641       H  0.58023627  0.32999425  0.76320636     0.16800
O1642       O  0.57796665  0.27341238  0.72263970    -0.60200
H1643       H  0.59321496  0.29084393  0.70974309     0.43800
H1644       H  0.44785889  0.33680297  0.78525423     0.43800
C1645       C  0.57828652  0.84237272  0.91610965    -0.05300
C1646       C  0.61404612  0.83098421  0.92116335    -0.32700
C1647       C  0.62132468  0.80164546  0.94224288     0.36500
C1648       C  0.59273080  0.78323077  0.95847593    -0.05600
C1649       C  0.55690179  0.79219623  0.95085935    -0.32600
C1650       C  0.54950805  0.82165149  0.92986906     0.36400
H1651       H  0.63655769  0.84600595  0.91030595     0.16800
O1652       O  0.65655704  0.79248268  0.94851040    -0.60100
H1653       H  0.53449195  0.77813795  0.63011178     0.16800
O1654       O  0.51414770  0.83021875  0.92329011    -0.60200
H1655       H  0.50529940  0.84292576  0.61049880     0.43800
H1656       H  0.66216889  0.77386931  0.93115132     0.43800
C1657       C  0.56319244  0.62836890  0.75289288    -0.05300
C1658       C  0.54694473  0.66116918  0.76065355    -0.32700
C1659       C  0.55517139  0.69181041  0.74146096     0.36500
C1660       C  0.58005120  0.68973056  0.71429446    -0.05600
C1661       C  0.59574718  0.65666516  0.70607854    -0.32600
C1662       C  0.58749544  0.62598602  0.72533759     0.36400
H1663       H  0.52826190  0.66309429  0.78191182     0.16800
O1664       O  0.53888087  0.72373279  0.74944434    -0.60100
H1665       H  0.61499468  0.65486684  0.68527385     0.16800
O1666       O  0.60319673  0.59384066  0.71707348    -0.60200
H1667       H  0.62447334  0.59200124  0.73242084     0.43800
H1668       H  0.51551074  0.72312035  0.73693362     0.43800
C1669       C  0.57682188  0.70144446  0.96947840    -0.05300
C1670       C  0.60195152  0.69187333  0.94431893    -0.32700
C1671       C  0.59500022  0.66306466  0.92186290     0.36500
C1672       C  0.56226140  0.64296545  0.92437882    -0.05600
C1673       C  0.53625798  0.65415693  0.94845596    -0.32600
C1674       C  0.54343051  0.68291715  0.97097023     0.36400
H1675       H  0.62779077  0.70597802  0.94303420     0.16800
O1676       O  0.62126980  0.65381168  0.89880938    -0.60100
H1677       H  0.51052219  0.63998675  0.95062241     0.16800
O1678       O  0.51758172  0.69308455  0.99412978    -0.60200
H1679       H  0.51448430  0.67216664  0.67680853     0.43800
H1680       H  0.61823338  0.67056848  0.87937543     0.43800
C1681       C  0.20096489  0.03103955  0.76937145    -0.05300
C1682       C  0.21005513  0.06762539  0.76491643    -0.32700
C1683       C  0.23974127  0.07799011  0.74496532     0.36500
C1684       C  0.26120475  0.05172960  0.72928263    -0.05600
C1685       C  0.25372457  0.01517953  0.73537206    -0.32600
C1686       C  0.22358425  0.00467534  0.75491799     0.36400
H1687       H  0.19320510  0.08842467  0.77574061     0.16800
O1688       O  0.24658461  0.11391830  0.73957967    -0.60100
H1689       H  0.26984973  0.99467691  0.72310606     0.16800
O1690       O  0.21645129  0.96866873  0.75958328    -0.60200
H1691       H  0.20476430  0.96034878  0.73808767     0.43800
H1692       H  0.26250689  0.12157134  0.75875182     0.43800
C1693       C  0.35925061  0.04252730  0.97683019    -0.05300
C1694       C  0.39476417  0.04786627  0.98892035    -0.32700
C1695       C  0.42436337  0.03607577  0.96965475     0.36500
C1696       C  0.41850747  0.01974568  0.93759503    -0.05600
C1697       C  0.38318357  0.01395754  0.92576993    -0.32600
C1698       C  0.35363264  0.02491992  0.94524369     0.36400
H1699       H  0.39961202  0.06158631  0.67973432     0.16800
O1700       O  0.45889104  0.04238916  0.98140213    -0.60100
H1701       H  0.37851760  0.00106348  0.90123042     0.16800
O1702       O  0.31923340  0.01746509  0.93365382    -0.60200
H1703       H  0.31502420  0.03481000  0.91490305     0.43800
H1704       H  0.46492697  0.02171979  0.66223552     0.43800
C1705       C  0.40125925  0.01556610  0.76512722    -0.05300
C1706       C  0.38952404  0.99190911  0.73892033    -0.32700
C1707       C  0.36063930  0.00084406  0.71729598     0.36500
C1708       C  0.34328033  0.03398768  0.72135330    -0.05600
C1709       C  0.35278325  0.05618666  0.74907935    -0.32600
C1710       C  0.38111153  0.04710095  0.77110627     0.36400
H1711       H  0.40336237  0.96680946  0.73439699     0.16800
O1712       O  0.34938881  0.97720952  0.69226347    -0.60100
H1713       H  0.33913169  0.08154740  0.75273601     0.16800
O1714       O  0.38958372  0.07004809  0.79755121    -0.60200
H1715       H  0.37381521  0.06222959  0.81672582     0.43800
H1716       H  0.37048696  0.97399621  0.67693062     0.43800
C1717       C  0.84571486  0.94797580  0.95839438    -0.05300
C1718       C  0.85691928  0.98390582  0.95438963    -0.32700
C1719       C  0.88729426  0.99264118  0.93449020     0.36500
C1720       C  0.90717997  0.96504147  0.91858204    -0.05600
C1721       C  0.89418243  0.92930117  0.92076277    -0.32600
C1722       C  0.86385732  0.92072916  0.94063087     0.36400
H1723       H  0.84382170  0.00492161  0.63556109     0.16800
O1724       O  0.89779925  0.02808106  0.93150240    -0.60100
H1725       H  0.90886084  0.90752205  0.90886596     0.16800
O1726       O  0.85400215  0.88528634  0.94491635    -0.60200
H1727       H  0.83500597  0.88057800  0.92749959     0.43800
H1728       H  0.91000007  0.03418198  0.61999827     0.43800
C1729       C  0.74392033  0.94322282  0.70773578    -0.05300
C1730       C  0.72972473  0.97799390  0.70701443    -0.32700
C1731       C  0.69985906  0.98691109  0.72709696     0.36500
C1732       C  0.68404536  0.96085009  0.74886853    -0.05600
C1733       C  0.69765979  0.92563525  0.74853874    -0.32600
C1734       C  0.72736036  0.91679080  0.72824669     0.36400
H1735       H  0.74284527  0.99886127  0.69209274     0.16800
O1736       O  0.68778013  0.02167247  0.72658089    -0.60100
H1737       H  0.68549154  0.90480324  0.76426849     0.16800
O1738       O  0.73976824  0.88212501  0.72824328    -0.60200
H1739       H  0.75373904  0.87978531  0.74975016     0.43800
H1740       H  0.67093322  0.02267454  0.70686179     0.43800
C1741       C  0.70169568  0.96402973  0.92027591    -0.05300
C1742       C  0.72369898  0.99288594  0.93180550    -0.32700
C1743       C  0.75320970  0.98706001  0.95370659     0.36500
C1744       C  0.76091106  0.95206022  0.96476875    -0.05600
C1745       C  0.73967765  0.92311068  0.95264657    -0.32600
C1746       C  0.71033627  0.92877874  0.93061715     0.36400
H1747       H  0.71744979  0.02022648  0.92451683     0.16800
O1748       O  0.77271767  0.01591323  0.96615518    -0.60100
H1749       H  0.74506610  0.89612090  0.96155697     0.16800
O1750       O  0.68903713  0.89989303  0.92111171    -0.60200
H1751       H  0.66971918  0.89843233  0.93867888     0.43800
H1752       H  0.78651116  0.02544050  0.94633885     0.43800
C1753       C  0.09991887  0.18878870  0.98565000    -0.05300
C1754       C  0.12735967  0.17609323  0.96429504    -0.32700
C1755       C  0.12143349  0.14612925  0.94326363     0.36500
C1756       C  0.08740153  0.12821108  0.94335739    -0.05600
C1757       C  0.06027384  0.14050420  0.96559855    -0.32600
C1758       C  0.06614322  0.17082023  0.98622632     0.36400
H1759       H  0.15334261  0.19000646  0.96337893     0.16800
O1760       O  0.14888305  0.13527117  0.92217776    -0.60100
H1761       H  0.03379950  0.12755130  0.96601616     0.16800
O1762       O  0.03795630  0.18388145  0.00516325    -0.60200
H1763       H  0.02568120  0.20129859  0.99006852     0.43800
H1764       H  0.16441429  0.11989719  0.93656969     0.43800
C1765       C  0.09149936  0.20395375  0.72950097    -0.05300
C1766       C  0.05750859  0.19879163  0.74477927    -0.32700
C1767       C  0.05108872  0.16930751  0.76647453     0.36500
C1768       C  0.07929793  0.14522846  0.77398586    -0.05600
C1769       C  0.11393785  0.15215032  0.76052551    -0.32600
C1770       C  0.11999663  0.18100308  0.73822034     0.36400
H1771       H  0.03547084  0.21650385  0.73846439     0.16800
O1772       O  0.01726175  0.16430932  0.78029866    -0.60100
H1773       H  0.13601953  0.13411314  0.76595607     0.16800
O1774       O  0.15387553  0.18658505  0.72472586    -0.60200
H1775       H  0.15596226  0.16881284  0.70587652     0.43800
H1776       H  0.00229784  0.15372325  0.76165569     0.43800
C1777       C  0.07364525  0.34786812  0.77649487    -0.05300
C1778       C  0.10989302  0.33667797  0.77494704    -0.32700
C1779       C  0.11949053  0.30690736  0.75529527     0.36500
C1780       C  0.09275821  0.28767086  0.73713486    -0.05600
C1781       C  0.05627506  0.29659297  0.74100405    -0.32600
C1782       C  0.04653125  0.32658684  0.76046343     0.36400
H1783       H  0.13125549  0.35225382  0.78728059     0.16800
O1784       O  0.15538861  0.29864699  0.75166210    -0.60100
H1785       H  0.03557506  0.28214430  0.72662842     0.16800
O1786       O  0.01062673  0.33531816  0.76286374    -0.60200
H1787       H  0.00515709  0.34862808  0.74159847     0.43800
H1788       H  0.15908300  0.27736895  0.76641867     0.43800
C1789       C  0.03049121  0.85893387  0.75694274    -0.05300
C1790       C  0.05685173  0.83269510  0.75169780    -0.32700
C1791       C  0.04879194  0.80187915  0.73230242     0.36500
C1792       C  0.01452193  0.79799816  0.71694793    -0.05600
C1793       C  0.98859527  0.82472961  0.72119375    -0.32600
C1794       C  0.99620489  0.85492233  0.74151468     0.36400
H1795       H  0.08316908  0.83539995  0.76380328     0.16800
O1796       O  0.07366635  0.77481852  0.72985913    -0.60100
H1797       H  0.96207460  0.82162331  0.70957021     0.16800
O1798       O  0.97029600  0.88069922  0.74569470    -0.60200
H1799       H  0.95259169  0.87020231  0.76204204     0.43800
H1800       H  0.09508257  0.78555108  0.71827498     0.43800
C1801       C  0.03397802  0.84538756  0.93054820    -0.05300
C1802       C  0.00178386  0.82502613  0.92591475    -0.32700
C1803       C  0.99352359  0.79534814  0.94690651     0.36500
C1804       C  0.01757481  0.78523360  0.97298951    -0.05600
C1805       C  0.05037356  0.80419815  0.97654616    -0.32600
C1806       C  0.05858388  0.83406987  0.95609161     0.36400
H1807       H  0.98233709  0.83270102  0.90662871     0.16800
O1808       O  0.96109642  0.77725946  0.60918598    -0.60100
H1809       H  0.06947103  0.79627878  0.99595080     0.16800
O1810       O  0.09067707  0.85216789  0.96182158    -0.60200
H1811       H  0.08614307  0.86783022  0.98186183     0.43800
H1812       H  0.94460053  0.78739576  0.62666290     0.43800
C1813       C  0.00039774  0.70257703  0.96241414    -0.05300
C1814       C  0.97097976  0.68277068  0.94918083    -0.32700
C1815       C  0.97658970  0.65328828  0.92759267     0.36500
C1816       C  0.01221365  0.64294331  0.91945738    -0.05600
C1817       C  0.04149656  0.66434381  0.93097661    -0.32600
C1818       C  0.03574251  0.69417649  0.95209780     0.36400
H1819       H  0.94369910  0.68870446  0.95749117     0.16800
O1820       O  0.94719545  0.63326775  0.91677101    -0.60100
H1821       H  0.06905869  0.65691227  0.92496475     0.16800
O1822       O  0.06501927  0.71232643  0.96566429    -0.60200
H1823       H  0.07130461  0.73105905  0.94860746     0.43800
H1824       H  0.94257714  0.61549087  0.93514155     0.43800
loop_ 
_geom_bond_atom_site_label_1 
_geom_bond_atom_site_label_2 
_geom_bond_distance 
_geom_bond_site_symmetry_2 
_ccdc_geom_bond_type 
N1            C2   1.355   1_455  A
N1          C613   1.355       .  A
N1          C588   1.446       .  S
C2          C597   1.469   1_655  S
C2          C611   1.384       .  A
C3            C4   1.373       .  A
C3         C1218   1.384   1_554  A
C3            H6   1.083       .  S
C4            C5   1.378   1_655  A
C4            H7   1.082       .  S
C5         N1217   1.355   1_554  A
C5          C576   1.465       .  S
N8           C12   1.355       .  A
N8            C9   1.351       .  A
N8          C549   1.441       .  S
C9          C564   1.463       .  S
C9           C10   1.381       .  A
C10        C1227   1.372   1_554  A
C10        H1229   1.082       .  S
C11         C618   1.372       .  A
C11         C620   1.382       .  A
C11          H14   1.082       .  S
C12        C1753   1.473   1_554  S
C12        C1227   1.382   1_554  A
H13         C618   1.082       .  S
N15          C16   1.354       .  A
N15         C627   1.355       .  A
N15         C528   1.441       .  S
C16         C501   1.469       .  S
C16         C625   1.382       .  A
C17          C18   1.372       .  A
C17        C1232   1.382   1_554  A
C17          H20   1.082       .  S
C18          C19   1.382       .  A
C18          H21   1.082       .  S
C19        N1231   1.355   1_554  A
C19         C513   1.473       .  S
N22          C26   1.358   1_554  A
N22          C23   1.355       .  A
N22         C492   1.441       .  S
C23         C468   1.475       .  S
C23          C24   1.382       .  A
C24        C1241   1.373   1_554  A
C24          H27   1.082       .  S
C25         C632   1.373       .  A
C25         C634   1.383       .  A
C25          H28   1.082       .  S
C26        C1693   1.480       .  S
C26        C1241   1.383       .  A
N29          C30   1.353       .  A
N29         C641   1.356       .  A
N29         C453   1.442       .  S
C30         C432   1.470       .  S
C30         C639   1.382       .  A
C31          C32   1.373       .  A
C31        C1246   1.382   1_554  A
C31          H34   1.082       .  S
C32          C33   1.381       .  A
C32          H35   1.082       .  S
C33        N1245   1.356   1_554  A
C33         C444   1.470       .  S
N36          C40   1.353   1_554  A
N36          C37   1.352       .  A
N36         C417   1.440       .  S
C37         C396   1.465       .  S
C37          C38   1.382       .  A
C38        C1255   1.373   1_554  A
C38          H41   1.082   1_554  S
C39         C646   1.373       .  A
C39         C648   1.381       .  A
C39          H42   1.082       .  S
C40        C1621   1.467       .  S
C40        C1255   1.381       .  A
N43          C47   1.357   1_554  A
N43          C44   1.354       .  A
N43         C369   1.445       .  S
C44         C381   1.469       .  S
C44          C45   1.382       .  A
C45        C1262   1.371   1_554  A
C45        H1264   1.082       .  S
C46         C653   1.371       .  A
C46         C655   1.381       .  A
C46          H49   1.082       .  S
C47        C1573   1.471       .  S
C47        C1262   1.381       .  A
H48         C653   1.082       .  S
N50          C51   1.356       .  A
N50         C662   1.355       .  A
N50         C333   1.443       .  S
C51         C345   1.473       .  S
C51         C660   1.384       .  A
C52          C53   1.374       .  A
C52        C1267   1.384   1_554  A
C52          H55   1.083       .  S
C53          C54   1.379       .  A
C53          H56   1.082       .  S
C54        N1266   1.355   1_554  A
C54         C321   1.471       .  S
Zr57         O58   2.440       .  S
Zr57         O59   2.442       .  S
Zr57         O60   2.427       .  S
Zr57         O63   2.431       .  S
Zr57         O65   2.381       .  S
Zr57         O66   2.376       .  S
Zr57         O67   2.406       .  S
Zr57         O68   2.401       .  S
O58         H114   0.990       .  S
O58         H122   0.990       .  S
O59          C79   1.286       .  A
O60          C81   1.282       .  A
O61         Zr71   2.424       .  S
O61          C80   1.284       .  A
O62         Zr70   2.425       .  S
O62          C81   1.282       .  A
O63          C80   1.285       .  A
O64         Zr72   2.428       .  S
O64          C79   1.284       .  A
O65         Zr70   2.396       .  S
O65         Zr72   2.375       .  S
O66         Zr71   2.384       .  S
O66         Zr72   2.372       .  S
O66         H101   0.965       .  S
O67         Zr70   2.399       .  S
O67         Zr87   2.394       .  S
O67         H104   0.965       .  S
O68         Zr71   2.388       .  S
O68         Zr87   2.397       .  S
Zr69         O94   2.448       .  S
Zr69         O88   2.447       .  S
Zr69         O96   2.424       .  S
Zr69         O84   2.421       .  S
Zr69         O75   2.400       .  S
Zr69         O76   2.403       .  S
Zr69         O77   2.376       .  S
Zr69         O78   2.379       .  S
Zr70         O89   2.437       .  S
Zr70         O82   2.435       .  S
Zr70         O83   2.438       .  S
Zr70         O76   2.391       .  S
Zr70         O77   2.386       .  S
Zr71         O73   2.435       .  S
Zr71         O95   2.439       .  S
Zr71         O97   2.416       .  S
Zr71         O75   2.388       .  S
Zr71         O78   2.386       .  S
Zr72         O98   2.437       .  S
Zr72         O99   2.436       .  S
Zr72         O74   2.437       .  S
Zr72         O75   2.397       .  S
Zr72         O76   2.393       .  S
O73         H110   0.990       .  S
O74         H105   0.990       .  S
O74         H119   0.990       .  S
O76         H102   0.965       .  S
O77         Zr87   2.377       .  S
O78         Zr87   2.376       .  S
O78         H103   0.965       .  S
C79         C456   1.496       .  S
C80         C348   1.478       .  S
C81         C441   1.459       .  S
O82         H118   0.990       .  S
O83          C85   1.287       .  A
O84          C85   1.282       .  A
C85         C384   1.485       .  S
O86         Zr87   2.440       .  S
O86         H115   0.990       .  S
Zr87         O90   2.438       .  S
Zr87         O91   2.438       .  S
Zr87         O92   2.431       .  S
O88          C93   1.288       .  A
O89         H106   0.990       .  S
O89         H121   0.990       .  S
O90         H107   0.990       .  S
O91         H111   0.990       .  S
O91         H120   0.990       .  S
O92          C93   1.284       .  A
C93         C420   1.489       .  S
O94         H113   0.990       .  S
O94         H117   0.990       .  S
O95         H109   0.990       .  S
O95         H116   0.990       .  S
O96         C100   1.284       .  A
O97         C100   1.282       .  A
O98         H108   0.990       .  S
O99         H112   0.990       .  S
C100        C408   1.476       .  S
Zr123       O124   2.439       .  S
Zr123       O125   2.445       .  S
Zr123       O126   2.424       .  S
Zr123       O129   2.422       .  S
Zr123       O131   2.382   1_565  S
Zr123       O132   2.376       .  S
Zr123       O133   2.407       .  S
Zr123       O134   2.401       .  S
O124        H180   0.990       .  S
O124        H188   0.990       .  S
O125        C145   1.286       .  A
O126        C147   1.283       .  A
O127       Zr137   2.428       .  S
O127        C146   1.284       .  A
O128       Zr136   2.420   1_565  S
O128        C147   1.282       .  A
O129        C146   1.283       .  A
O130       Zr138   2.431       .  S
O130        C145   1.284   1_545  A
O131       Zr136   2.399       .  S
O131       Zr138   2.376       .  S
O132       Zr137   2.387       .  S
O132       Zr138   2.372   1_565  S
O132        H167   0.966       .  S
O133       Zr136   2.399   1_565  S
O133       Zr153   2.396       .  S
O133        H170   0.966       .  S
O134       Zr137   2.393       .  S
O134       Zr153   2.399       .  S
Zr135       O160   2.445       .  S
Zr135       O154   2.441       .  S
Zr135       O162   2.424       .  S
Zr135       O150   2.429       .  S
Zr135       O141   2.402       .  S
Zr135       O142   2.405       .  S
Zr135       O143   2.379       .  S
Zr135       O144   2.380   1_545  S
Zr136       O155   2.438       .  S
Zr136       O148   2.436       .  S
Zr136       O149   2.431       .  S
Zr136       O142   2.393       .  S
Zr136       O143   2.386       .  S
Zr137       O139   2.435       .  S
Zr137       O161   2.439       .  S
Zr137       O163   2.428       .  S
Zr137       O141   2.391   1_565  S
Zr137       O144   2.391       .  S
Zr138       O164   2.437       .  S
Zr138       O165   2.436       .  S
Zr138       O140   2.436       .  S
Zr138       O141   2.401       .  S
Zr138       O142   2.395       .  S
O139        H176   0.990       .  S
O140        H171   0.990       .  S
O140        H185   0.990       .  S
O142        H168   0.965       .  S
O143       Zr153   2.378   1_545  S
O144       Zr153   2.376       .  S
O144        H169   0.965       .  S
C145        C525   1.489       .  S
C146        C429   1.480       .  S
C147        C516   1.481       .  S
O148        H184   0.990       .  S
O149        C151   1.286       .  A
O150        C151   1.284       .  A
C151        C393   1.486       .  S
O152       Zr153   2.440       .  S
O152        H181   0.990       .  S
Zr153       O156   2.440       .  S
Zr153       O157   2.438       .  S
Zr153       O158   2.427       .  S
O154        C159   1.286       .  A
O155        H172   0.990       .  S
O155        H187   0.990   1_545  S
O156        H173   0.990       .  S
O157        H177   0.990       .  S
O157        H186   0.990       .  S
O158        C159   1.283   1_565  A
C159        C489   1.496       .  S
O160        H179   0.990       .  S
O160        H183   0.991       .  S
O161        H175   0.990       .  S
O161        H182   0.989       .  S
O162        C166   1.282       .  A
O163        C166   1.283   1_565  A
O164        H174   0.991       .  S
O165        H178   0.990       .  S
C166        C480   1.463       .  S
Zr189       O190   2.440   1_455  S
Zr189       O191   2.456       .  S
Zr189       O192   2.428       .  S
Zr189       O195   2.416   1_455  S
Zr189       O197   2.381       .  S
Zr189       O198   2.380       .  S
Zr189       O199   2.409       .  S
Zr189       O200   2.404   1_465  S
O190        H246   0.991       .  S
O190        H254   0.990       .  S
O191        C211   1.288       .  A
O192        C213   1.282       .  A
O193       Zr203   2.432   1_655  S
O193        C212   1.285   1_545  A
O194       Zr202   2.418       .  S
O194        C213   1.281       .  A
O195        C212   1.282       .  A
O196       Zr204   2.425       .  S
O196        C211   1.282       .  A
O197       Zr202   2.400       .  S
O197       Zr204   2.377       .  S
O198       Zr203   2.386   1_565  S
O198       Zr204   2.376       .  S
O198        H233   0.966       .  S
O199       Zr202   2.402       .  S
O199       Zr219   2.402   1_565  S
O199        H236   0.965       .  S
O200       Zr203   2.389   1_655  S
O200       Zr219   2.397   1_655  S
Zr201       O226   2.442       .  S
Zr201       O220   2.443       .  S
Zr201       O228   2.423       .  S
Zr201       O216   2.422       .  S
Zr201       O207   2.400       .  S
Zr201       O208   2.401   1_545  S
Zr201       O209   2.372       .  S
Zr201       O210   2.380       .  S
Zr202       O221   2.438       .  S
Zr202       O214   2.434       .  S
Zr202       O215   2.438       .  S
Zr202       O208   2.390       .  S
Zr202       O209   2.384   1_565  S
Zr203       O205   2.436   1_455  S
Zr203       O227   2.436       .  S
Zr203       O229   2.427       .  S
Zr203       O207   2.390       .  S
Zr203       O210   2.386       .  S
Zr204       O230   2.437       .  S
Zr204       O231   2.435       .  S
Zr204       O206   2.436       .  S
Zr204       O207   2.397   1_565  S
Zr204       O208   2.395       .  S
O205        H242   0.990       .  S
O206        H237   0.990       .  S
O206        H251   0.990       .  S
O208        H234   0.965       .  S
O209       Zr219   2.372       .  S
O210       Zr219   2.373       .  S
O210        H235   0.965       .  S
C211        C585   1.502       .  S
C212        C504   1.483       .  S
C213        C573   1.465       .  S
O214        H250   0.990       .  S
O215        C217   1.286   1_565  A
O216        C217   1.284       .  A
C217        C465   1.483       .  S
O218       Zr219   2.439   1_655  S
O218        H247   0.990       .  S
Zr219       O222   2.438       .  S
Zr219       O223   2.438   1_455  S
Zr219       O224   2.432       .  S
O220        C225   1.287       .  A
O221        H238   0.990       .  S
O221        H253   0.990       .  S
O222        H239   0.990       .  S
O223        H243   0.990       .  S
O223        H252   0.990       .  S
O224        C225   1.284       .  A
C225        C552   1.485       .  S
O226        H245   0.990       .  S
O226        H249   0.990       .  S
O227        H241   0.990       .  S
O227        H248   0.990       .  S
O228        C232   1.284       .  A
O229        C232   1.285       .  A
O230        H240   0.990       .  S
O231        H244   0.990       .  S
C232        C540   1.483       .  S
Zr255       O256   2.439       .  S
Zr255       O257   2.452       .  S
Zr255       O258   2.434       .  S
Zr255       O261   2.423       .  S
Zr255       O263   2.382       .  S
Zr255       O264   2.379   1_655  S
Zr255       O265   2.409   1_655  S
Zr255       O266   2.404   1_655  S
O256        H312   0.990       .  S
O256        H320   0.990       .  S
O257        C277   1.287       .  A
O258        C279   1.283       .  A
O259       Zr269   2.418       .  S
O259        C278   1.282       .  A
O260       Zr268   2.427   1_655  S
O260        C279   1.283       .  A
O261        C278   1.283   1_655  A
O262       Zr270   2.418   1_655  S
O262        C277   1.281       .  A
O263       Zr268   2.397   1_655  S
O263       Zr270   2.379   1_655  S
O264       Zr269   2.390       .  S
O264       Zr270   2.376       .  S
O264        H299   0.967       .  S
O265       Zr268   2.401       .  S
O265       Zr285   2.400       .  S
O265        H302   0.966       .  S
O266       Zr269   2.390       .  S
O266       Zr285   2.400       .  S
Zr267       O292   2.449       .  S
Zr267       O286   2.439       .  S
Zr267       O294   2.417       .  S
Zr267       O282   2.410       .  S
Zr267       O273   2.397       .  S
Zr267       O274   2.404       .  S
Zr267       O275   2.377       .  S
Zr267       O276   2.376       .  S
Zr268       O287   2.437       .  S
Zr268       O280   2.435   1_455  S
Zr268       O281   2.432       .  S
Zr268       O274   2.395       .  S
Zr268       O275   2.390       .  S
Zr269       O271   2.435       .  S
Zr269       O293   2.439       .  S
Zr269       O295   2.421       .  S
Zr269       O273   2.391       .  S
Zr269       O276   2.386       .  S
Zr270       O296   2.436       .  S
Zr270       O297   2.436       .  S
Zr270       O272   2.437   1_455  S
Zr270       O273   2.395       .  S
Zr270       O274   2.391       .  S
O271        H308   0.990       .  S
O272        H303   0.990       .  S
O272        H317   0.990       .  S
O274        H300   0.965       .  S
O275       Zr285   2.373       .  S
O276       Zr285   2.374       .  S
O276        H301   0.966       .  S
C277        C336   1.498       .  S
C278        C600   1.477       .  S
C279        C324   1.472       .  S
O280        H316   0.990       .  S
O281        C283   1.285       .  A
O282        C283   1.281       .  A
C283        C561   1.479       .  S
O284       Zr285   2.439       .  S
O284        H313   0.990       .  S
Zr285       O288   2.439       .  S
Zr285       O289   2.439       .  S
Zr285       O290   2.437       .  S
O286        C291   1.286       .  A
O287        H304   0.991   1_455  S
O287        H319   0.990       .  S
O288        H305   0.990       .  S
O289        H309   0.990       .  S
O289        H318   0.990       .  S
O290        C291   1.286       .  A
C291        C372   1.499       .  S
O292        H311   0.990       .  S
O292        H315   0.990       .  S
O293        H307   0.990       .  S
O293        H314   0.989       .  S
O294        C298   1.281       .  A
O295        C298   1.282       .  A
O296        H306   0.991   1_455  S
O297        H310   0.990       .  S
C298        C360   1.456       .  S
C321        C322   1.400       .  A
C321        C326   1.405       .  A
C322        C323   1.401       .  A
C322        H327   1.084       .  S
C323        C324   1.410       .  A
C323        O328   1.372       .  S
C324        C325   1.402       .  A
C325        C326   1.399       .  A
C325        H329   1.084       .  S
C326        O330   1.372       .  S
O328        H332   0.992       .  S
O330        H331   0.992       .  S
C333        C334   1.399       .  A
C333        C338   1.407       .  A
C334        C335   1.399       .  A
C334        H947   1.083       .  S
C335        C336   1.419       .  A
C335        O340   1.371       .  S
C336        C337   1.410       .  A
C337        C338   1.407       .  A
C337        H341   1.083       .  S
C338        O342   1.371       .  S
H339       C1550   1.083       .  S
O340        H952   0.992       .  S
O342        H343   0.991       .  S
H344       O1556   0.992       .  S
C345        C346   1.401       .  A
C345        C350   1.407       .  A
C346        C347   1.402       .  A
C346        H959   1.084       .  S
C347        C348   1.412       .  A
C347        O352   1.372       .  S
C348        C349   1.404       .  A
C349        C350   1.399       .  A
C349        H353   1.084       .  S
C350        O354   1.372       .  S
H351       C1562   1.084       .  S
O352        H356   0.991       .  S
O354        H355   0.991       .  S
C357        C655   1.471       .  S
C357        C358   1.401       .  A
C357        C362   1.410       .  A
C358        C359   1.398       .  A
C358        H971   1.083       .  S
C359        C360   1.405       .  A
C359        O364   1.371       .  S
C360        C361   1.397       .  A
C361        C362   1.395       .  A
C361        H365   1.084       .  S
C362        O366   1.372       .  S
H363       C1574   1.083   1_554  S
O364        H976   0.992       .  S
O366        H367   0.992       .  S
H368       O1580   0.992       .  S
C369        C370   1.403       .  A
C369        C374   1.405       .  A
C370        C371   1.404       .  A
C370        H375   1.083       .  S
C371        C372   1.417       .  A
C371        O376   1.371       .  S
C372        C373   1.411       .  A
C373        C374   1.405       .  A
C373        H377   1.083       .  S
C374        O378   1.373       .  S
O376        H380   0.992       .  S
O378        H379   0.992       .  S
C381        C382   1.398       .  A
C381        C386   1.406       .  A
C382        C383   1.397       .  A
C382        H387   1.084       .  S
C383        C384   1.414       .  A
C383        O388   1.369       .  S
C384        C385   1.406       .  A
C385        C386   1.400       .  A
C385        H389   1.083       .  S
C386        O390   1.371       .  S
O388        H392   0.992       .  S
O390        H391   0.991       .  S
C393        C394   1.407       .  A
C393        C398   1.415       .  A
C394        C395   1.397       .  A
C394        H399   1.083       .  S
C395        C396   1.403       .  A
C395        O400   1.373       .  S
C396        C397   1.399       .  A
C397        C398   1.401       .  A
C397        H401   1.084       .  S
C398        O402   1.372       .  S
O400        H404   0.991       .  S
O402        H403   0.992       .  S
C405        C648   1.467       .  S
C405        C406   1.399       .  A
C405        C410   1.403       .  A
C406        C407   1.396       .  A
C406       H1019   1.082       .  S
C407        C408   1.412       .  A
C407        O412   1.372       .  S
C408        C409   1.406       .  A
C409        C410   1.397       .  A
C409        H413   1.083       .  S
C410        O414   1.372       .  S
H411       C1622   1.082       .  S
O412       H1024   0.992       .  S
O414        H415   0.991       .  S
H416       O1628   0.992       .  S
C417        C418   1.400       .  A
C417        C422   1.405       .  A
C418        C419   1.401       .  A
C418        H423   1.083       .  S
C419        C420   1.410       .  A
C419        O424   1.369       .  S
C420        C421   1.408       .  A
C421        C422   1.407       .  A
C421        H425   1.083       .  S
C422        O426   1.371       .  S
O424        H428   0.991       .  S
O426        H427   0.992       .  S
C429        C430   1.406       .  A
C429        C434   1.411       .  A
C430        C431   1.398       .  A
C430        H435   1.083       .  S
C431        C432   1.404       .  A
C431        O436   1.371       .  S
C432        C433   1.401       .  A
C433        C434   1.400       .  A
C433       H1045   1.084       .  S
C434        O438   1.372       .  S
O436        H440   0.991       .  S
H437       C1649   1.084       .  S
O438       H1047   0.991       .  S
H439       O1654   0.991       .  S
C441        C442   1.397       .  A
C441        C446   1.407       .  A
C442        C443   1.396       .  A
C442        H447   1.084       .  S
C443        C444   1.408       .  A
C443        O448   1.372       .  S
C444        C445   1.401       .  A
C445        C446   1.399       .  A
C445        H449   1.084       .  S
C446        O450   1.372       .  S
O448        H452   0.992       .  S
O450        H451   0.992       .  S
C453        C454   1.401       .  A
C453        C458   1.405       .  A
C454        C455   1.402       .  A
C454        H459   1.083       .  S
C455        C456   1.415       .  A
C455        O460   1.371       .  S
C456        C457   1.411       .  A
C457        C458   1.404       .  A
C457        H461   1.083       .  S
C458        O462   1.372       .  S
O460        H464   0.992       .  S
O462       H1071   0.992       .  S
H463       O1678   0.992   1_554  S
C465        C466   1.406       .  A
C465        C470   1.412       .  A
C466        C467   1.397       .  A
C466        H471   1.084       .  S
C467        C468   1.404       .  A
C467        O472   1.371       .  S
C468        C469   1.403       .  A
C469        C470   1.403       .  A
C469        H473   1.084   1_545  S
C470        O474   1.372   1_545  S
O472        H476   0.991       .  S
O474        H475   0.992       .  S
C477        C634   1.479       .  S
C477        C478   1.405       .  A
C477        C482   1.410       .  A
C478        C479   1.402       .  A
C478       H1091   1.083       .  S
C479        C480   1.407       .  A
C479        O484   1.372       .  S
C480        C481   1.397       .  A
C481        C482   1.396       .  A
C481        H485   1.084       .  S
C482        O486   1.372       .  S
H483       C1694   1.083   1_554  S
O484       H1096   0.992       .  S
O486        H487   0.992       .  S
H488       O1700   0.992       .  S
C489        C490   1.412   1_545  A
C489        C494   1.415       .  A
C490        C491   1.405   1_565  A
C490        H495   1.083       .  S
C491        C492   1.404       .  A
C491        O496   1.373   1_545  S
C492        C493   1.402       .  A
C493        C494   1.400       .  A
C493        H497   1.083       .  S
C494        O498   1.371       .  S
O496        H500   0.992       .  S
O498        H499   0.992       .  S
C501        C502   1.401       .  A
C501        C506   1.403       .  A
C502        C503   1.401       .  A
C502       H1115   1.082   1_565  S
C503        C504   1.412       .  A
C503        O508   1.372   1_565  S
C504        C505   1.408       .  A
C505        C506   1.397       .  A
C505        H509   1.084       .  S
C506        O510   1.372       .  S
H507       C1718   1.082   1_545  S
O508       H1120   0.992       .  S
O510        H511   0.991       .  S
H512       O1724   0.992       .  S
C513        C514   1.400       .  A
C513        C518   1.404       .  A
C514        C515   1.398       .  A
C514        H519   1.082       .  S
C515        C516   1.412       .  A
C515        O520   1.372   1_565  S
C516        C517   1.407       .  A
C517        C518   1.397       .  A
C517        H521   1.083       .  S
C518        O522   1.372       .  S
O520        H524   0.992       .  S
O522        H523   0.992       .  S
C525        C526   1.408       .  A
C525        C530   1.412       .  A
C526        C527   1.405       .  A
C526        H531   1.083   1_565  S
C527        C528   1.404       .  A
C527        O532   1.371   1_565  S
C528        C529   1.402       .  A
C529        C530   1.402       .  A
C529        H533   1.083       .  S
C530        O534   1.371       .  S
O532        H536   0.992       .  S
O534        H535   0.992       .  S
C537        C620   1.472       .  S
C537        C538   1.399       .  A
C537        C542   1.406       .  A
C538        C539   1.396       .  A
C538        H543   1.084       .  S
C539        C540   1.414       .  A
C539        O544   1.371       .  S
C540        C541   1.407       .  A
C541        C542   1.397       .  A
C541        H545   1.083       .  S
C542        O546   1.371       .  S
O544        H548   0.991       .  S
O546        H547   0.992       .  S
C549        C550   1.401       .  A
C549        C554   1.406       .  A
C550        C551   1.406       .  A
C550        H555   1.082       .  S
C551        C552   1.413       .  A
C551        O556   1.372       .  S
C552        C553   1.404       .  A
C553        C554   1.400       .  A
C553        H557   1.084       .  S
C554        O558   1.371       .  S
O556        H560   0.992       .  S
O558        H559   0.992       .  S
C561        C562   1.408       .  A
C561        C566   1.412       .  A
C562        C563   1.394       .  A
C562        H567   1.084       .  S
C563        C564   1.402       .  A
C563        O568   1.372       .  S
C564        C565   1.400       .  A
C565        C566   1.398       .  A
C565        H569   1.084       .  S
C566        O570   1.372       .  S
O568        H572   0.991       .  S
O570        H571   0.992       .  S
C573        C574   1.401       .  A
C573        C578   1.408   1_455  A
C574        C575   1.399       .  A
C574        H579   1.084       .  S
C575        C576   1.405       .  A
C575        O580   1.374       .  S
C576        C577   1.398   1_455  A
C577        C578   1.397       .  A
C577        H581   1.084       .  S
C578        O582   1.372       .  S
O580        H584   0.991       .  S
O582        H583   0.992       .  S
C585        C586   1.411       .  A
C585        C590   1.419       .  A
C586        C587   1.407   1_455  A
C586        H591   1.083   1_455  S
C587        C588   1.408   1_655  A
C587       O1200   1.371       .  S
C588        C589   1.399       .  A
C589        C590   1.400       .  A
C589        H593   1.080       .  S
C590        O594   1.372       .  S
O592       C1803   1.371       .  S
O592        H596   0.993       .  S
O594        H595   0.990       .  S
C597        C598   1.401   1_455  A
C597        C602   1.405       .  A
C598        C599   1.398       .  A
C598        H603   1.084       .  S
C599        C600   1.411   1_655  A
C599        O604   1.373       .  S
C600        C601   1.406       .  A
C601        C602   1.398       .  A
C601        H605   1.084       .  S
C602        O606   1.371       .  S
O604        H608   0.991       .  S
O606        H607   0.991       .  S
N609       C1221   1.355       .  A
N609        C610   1.355   1_455  A
N609       C1196   1.446       .  S
C610       C1205   1.470   1_655  S
C610       C1219   1.384       .  A
C611        C612   1.373       .  A
C611        H614   1.083       .  S
C612        C613   1.378   1_655  A
C612        H615   1.082       .  S
C613       C1184   1.465       .  S
N616        C620   1.355       .  A
N616        C617   1.351       .  A
N616       C1157   1.441       .  S
C617       C1172   1.462       .  S
C617        C618   1.381       .  A
C619       C1226   1.372       .  A
C619       C1228   1.382       .  A
C619        H622   1.082       .  S
H621       C1226   1.082       .  S
N623       C1235   1.355       .  A
N623        C624   1.354       .  A
N623       C1136   1.441       .  S
C624       C1109   1.469       .  S
C624       C1233   1.382       .  A
C625        C626   1.372       .  A
C625        H628   1.082       .  S
C626        C627   1.382       .  A
C626        H629   1.082       .  S
C627       C1121   1.474       .  S
N630        C634   1.358       .  A
N630        C631   1.355       .  A
N630       C1100   1.442       .  S
C631       C1076   1.475       .  S
C631        C632   1.382       .  A
C632        H635   1.082       .  S
C633       C1240   1.372       .  A
C633       C1242   1.383       .  A
C633        H636   1.082       .  S
N637       C1249   1.355       .  A
N637        C638   1.353       .  A
N637       C1061   1.443       .  S
C638       C1040   1.470       .  S
C638       C1247   1.383       .  A
C639        C640   1.373       .  A
C639        H642   1.082       .  S
C640        C641   1.381       .  A
C640        H643   1.082       .  S
C641       C1052   1.471       .  S
N644        C648   1.353       .  A
N644        C645   1.352       .  A
N644       C1025   1.440       .  S
C645       C1004   1.465       .  S
C645        C646   1.382       .  A
C646        H649   1.082       .  S
C647       C1254   1.373       .  A
C647       C1256   1.381       .  A
C647        H650   1.082       .  S
N651        C655   1.357       .  A
N651        C652   1.354       .  A
N651        C977   1.445       .  S
C652        C989   1.469       .  S
C652        C653   1.382       .  A
C654       C1261   1.371       .  A
C654       C1263   1.381       .  A
C654        H657   1.082       .  S
H656       C1261   1.082       .  S
N658       C1270   1.355       .  A
N658        C659   1.356       .  A
N658        C941   1.442       .  S
C659        C953   1.474       .  S
C659       C1268   1.384       .  A
C660        C661   1.373       .  A
C660        H663   1.083       .  S
C661        C662   1.378       .  A
C661        H664   1.082       .  S
C662        C929   1.470       .  S
Zr665       O666   2.440       .  S
Zr665       O667   2.443       .  S
Zr665       O668   2.427       .  S
Zr665       O671   2.431       .  S
Zr665       O673   2.380       .  S
Zr665       O674   2.376       .  S
Zr665       O675   2.406       .  S
Zr665       O676   2.402       .  S
O666        H722   0.990       .  S
O666        H730   0.990       .  S
O667        C687   1.286       .  A
O668        C689   1.282       .  A
O669       Zr679   2.427       .  S
O669        C688   1.284       .  A
O670       Zr678   2.426       .  S
O670        C689   1.283       .  A
O671        C688   1.285       .  A
O672       Zr680   2.428       .  S
O672        C687   1.284       .  A
O673       Zr678   2.395       .  S
O673       Zr680   2.374       .  S
O674       Zr679   2.385       .  S
O674       Zr680   2.372       .  S
O674        H709   0.965       .  S
O675       Zr678   2.399       .  S
O675       Zr695   2.395       .  S
O675        H712   0.965       .  S
O676       Zr679   2.388       .  S
O676       Zr695   2.398       .  S
Zr677       O702   2.449       .  S
Zr677       O696   2.446       .  S
Zr677       O704   2.427       .  S
Zr677       O692   2.424       .  S
Zr677       O683   2.399       .  S
Zr677       O684   2.404       .  S
Zr677       O685   2.377       .  S
Zr677       O686   2.379       .  S
Zr678       O697   2.437       .  S
Zr678       O690   2.435       .  S
Zr678       O691   2.437       .  S
Zr678       O684   2.395       .  S
Zr678       O685   2.388       .  S
Zr679       O681   2.435       .  S
Zr679       O703   2.439       .  S
Zr679       O705   2.416       .  S
Zr679       O683   2.391       .  S
Zr679       O686   2.387       .  S
Zr680       O706   2.437       .  S
Zr680       O707   2.436       .  S
Zr680       O682   2.438       .  S
Zr680       O683   2.397       .  S
Zr680       O684   2.395       .  S
O681        H718   0.990       .  S
O682        H713   0.990       .  S
O682        H727   0.990       .  S
O684        H710   0.965       .  S
O685       Zr695   2.378       .  S
O686       Zr695   2.376       .  S
O686        H711   0.965       .  S
C687       C1064   1.497       .  S
C688        C956   1.479       .  S
C689       C1049   1.460       .  S
O690        H726   0.990       .  S
O691        C693   1.286       .  A
O692        C693   1.282       .  A
C693        C992   1.486       .  S
O694       Zr695   2.440       .  S
O694        H723   0.990       .  S
Zr695       O698   2.437       .  S
Zr695       O699   2.439       .  S
Zr695       O700   2.430       .  S
O696        C701   1.287       .  A
O697        H714   0.990       .  S
O697        H729   0.990       .  S
O698        H715   0.990       .  S
O699        H719   0.990       .  S
O699        H728   0.990       .  S
O700        C701   1.284       .  A
C701       C1028   1.489       .  S
O702        H721   0.990       .  S
O702        H725   0.990       .  S
O703        H717   0.990       .  S
O703        H724   0.990       .  S
O704        C708   1.284       .  A
O705        C708   1.282       .  A
O706        H716   0.990       .  S
O707        H720   0.990       .  S
C708       C1016   1.476       .  S
Zr731       O732   2.439       .  S
Zr731       O733   2.444       .  S
Zr731       O734   2.424       .  S
Zr731       O737   2.423       .  S
Zr731       O739   2.383   1_565  S
Zr731       O740   2.376       .  S
Zr731       O741   2.408       .  S
Zr731       O742   2.400       .  S
O732        H788   0.990       .  S
O732        H796   0.990       .  S
O733        C753   1.286       .  A
O734        C755   1.283       .  A
O735       Zr745   2.428       .  S
O735        C754   1.284       .  A
O736       Zr744   2.420   1_565  S
O736        C755   1.282       .  A
O737        C754   1.284       .  A
O738       Zr746   2.433       .  S
O738        C753   1.284   1_545  A
O739       Zr744   2.399       .  S
O739       Zr746   2.376       .  S
O740       Zr745   2.387       .  S
O740       Zr746   2.371   1_565  S
O740        H775   0.966       .  S
O741       Zr744   2.399   1_565  S
O741       Zr761   2.396       .  S
O741        H778   0.966       .  S
O742       Zr745   2.392       .  S
O742       Zr761   2.398       .  S
Zr743       O768   2.444       .  S
Zr743       O762   2.441       .  S
Zr743       O770   2.424       .  S
Zr743       O758   2.429       .  S
Zr743       O749   2.402       .  S
Zr743       O750   2.406       .  S
Zr743       O751   2.378       .  S
Zr743       O752   2.380   1_545  S
Zr744       O763   2.437       .  S
Zr744       O756   2.436       .  S
Zr744       O757   2.431       .  S
Zr744       O750   2.392       .  S
Zr744       O751   2.385       .  S
Zr745       O747   2.435       .  S
Zr745       O769   2.439       .  S
Zr745       O771   2.427       .  S
Zr745       O749   2.391   1_565  S
Zr745       O752   2.390       .  S
Zr746       O772   2.437       .  S
Zr746       O773   2.436       .  S
Zr746       O748   2.437       .  S
Zr746       O749   2.401       .  S
Zr746       O750   2.396       .  S
O747        H784   0.990       .  S
O748        H779   0.990       .  S
O748        H793   0.990       .  S
O750        H776   0.965       .  S
O751       Zr761   2.378   1_545  S
O752       Zr761   2.376       .  S
O752        H777   0.965       .  S
C753       C1133   1.490       .  S
C754       C1037   1.480       .  S
C755       C1124   1.480       .  S
O756        H792   0.990       .  S
O757        C759   1.286       .  A
O758        C759   1.284       .  A
C759       C1001   1.486       .  S
O760       Zr761   2.440       .  S
O760        H789   0.990       .  S
Zr761       O764   2.440       .  S
Zr761       O765   2.438       .  S
Zr761       O766   2.427       .  S
O762        C767   1.286       .  A
O763        H780   0.990       .  S
O763        H795   0.990   1_545  S
O764        H781   0.990       .  S
O765        H785   0.990       .  S
O765        H794   0.990       .  S
O766        C767   1.283   1_565  A
C767       C1097   1.496       .  S
O768        H787   0.990       .  S
O768        H791   0.991       .  S
O769        H783   0.990       .  S
O769        H790   0.989       .  S
O770        C774   1.283       .  A
O771        C774   1.282   1_565  A
O772        H782   0.990       .  S
O773        H786   0.990       .  S
C774       C1088   1.464       .  S
Zr797       O798   2.440   1_455  S
Zr797       O799   2.456       .  S
Zr797       O800   2.428       .  S
Zr797       O803   2.416   1_455  S
Zr797       O805   2.380       .  S
Zr797       O806   2.380       .  S
Zr797       O807   2.409       .  S
Zr797       O808   2.404   1_465  S
O798        H854   0.991       .  S
O798        H862   0.990       .  S
O799        C819   1.288       .  A
O800        C821   1.282       .  A
O801       Zr811   2.433   1_655  S
O801        C820   1.286   1_545  A
O802       Zr810   2.419       .  S
O802        C821   1.281       .  A
O803        C820   1.282       .  A
O804       Zr812   2.425       .  S
O804        C819   1.282       .  A
O805       Zr810   2.400       .  S
O805       Zr812   2.377       .  S
O806       Zr811   2.386   1_565  S
O806       Zr812   2.376       .  S
O806        H841   0.966       .  S
O807       Zr810   2.402       .  S
O807       Zr827   2.402   1_565  S
O807        H844   0.965       .  S
O808       Zr811   2.390   1_655  S
O808       Zr827   2.397   1_655  S
Zr809       O834   2.442       .  S
Zr809       O828   2.443       .  S
Zr809       O836   2.423       .  S
Zr809       O824   2.423       .  S
Zr809       O815   2.400       .  S
Zr809       O816   2.401   1_545  S
Zr809       O817   2.372       .  S
Zr809       O818   2.380       .  S
Zr810       O829   2.438       .  S
Zr810       O822   2.435       .  S
Zr810       O823   2.439       .  S
Zr810       O816   2.390       .  S
Zr810       O817   2.384   1_565  S
Zr811       O813   2.436   1_455  S
Zr811       O835   2.436       .  S
Zr811       O837   2.427       .  S
Zr811       O815   2.391       .  S
Zr811       O818   2.386       .  S
Zr812       O838   2.437       .  S
Zr812       O839   2.435       .  S
Zr812       O814   2.436       .  S
Zr812       O815   2.397   1_565  S
Zr812       O816   2.395       .  S
O813        H850   0.990       .  S
O814        H845   0.990       .  S
O814        H859   0.990       .  S
O816        H842   0.965       .  S
O817       Zr827   2.373       .  S
O818       Zr827   2.373       .  S
O818        H843   0.965       .  S
C819       C1193   1.502       .  S
C820       C1112   1.483       .  S
C821       C1181   1.465       .  S
O822        H858   0.990       .  S
O823        C825   1.286   1_565  A
O824        C825   1.284       .  A
C825       C1073   1.484       .  S
O826       Zr827   2.439   1_655  S
O826        H855   0.990       .  S
Zr827       O830   2.438       .  S
Zr827       O831   2.438   1_455  S
Zr827       O832   2.432       .  S
O828        C833   1.287       .  A
O829        H846   0.990       .  S
O829        H861   0.990       .  S
O830        H847   0.990       .  S
O831        H851   0.990       .  S
O831        H860   0.990       .  S
O832        C833   1.284       .  A
C833       C1160   1.485       .  S
O834        H853   0.990       .  S
O834        H857   0.990       .  S
O835        H849   0.990       .  S
O835        H856   0.990       .  S
O836        C840   1.284       .  A
O837        C840   1.285       .  A
O838        H848   0.990       .  S
O839        H852   0.990       .  S
C840       C1148   1.483       .  S
Zr863       O864   2.439       .  S
Zr863       O865   2.452       .  S
Zr863       O866   2.434       .  S
Zr863       O869   2.424       .  S
Zr863       O871   2.381       .  S
Zr863       O872   2.378   1_655  S
Zr863       O873   2.409   1_655  S
Zr863       O874   2.405   1_655  S
O864        H920   0.990       .  S
O864        H928   0.990       .  S
O865        C885   1.287       .  A
O866        C887   1.283       .  A
O867       Zr877   2.419       .  S
O867        C886   1.283       .  A
O868       Zr876   2.426   1_655  S
O868        C887   1.283       .  A
O869        C886   1.283   1_655  A
O870       Zr878   2.418   1_655  S
O870        C885   1.281       .  A
O871       Zr876   2.396   1_655  S
O871       Zr878   2.379   1_655  S
O872       Zr877   2.390       .  S
O872       Zr878   2.376       .  S
O872        H907   0.966       .  S
O873       Zr876   2.401       .  S
O873       Zr893   2.400       .  S
O873        H910   0.966       .  S
O874       Zr877   2.390       .  S
O874       Zr893   2.400       .  S
Zr875       O900   2.449       .  S
Zr875       O894   2.439       .  S
Zr875       O902   2.418       .  S
Zr875       O890   2.411       .  S
Zr875       O881   2.397       .  S
Zr875       O882   2.404       .  S
Zr875       O883   2.377       .  S
Zr875       O884   2.376       .  S
Zr876       O895   2.437       .  S
Zr876       O888   2.435   1_455  S
Zr876       O889   2.431       .  S
Zr876       O882   2.395       .  S
Zr876       O883   2.390       .  S
Zr877       O879   2.435       .  S
Zr877       O901   2.439       .  S
Zr877       O903   2.421       .  S
Zr877       O881   2.391       .  S
Zr877       O884   2.386       .  S
Zr878       O904   2.436       .  S
Zr878       O905   2.436       .  S
Zr878       O880   2.437   1_455  S
Zr878       O881   2.395       .  S
Zr878       O882   2.391       .  S
O879        H916   0.990       .  S
O880        H911   0.990       .  S
O880        H925   0.990       .  S
O882        H908   0.965       .  S
O883       Zr893   2.373       .  S
O884       Zr893   2.373       .  S
O884        H909   0.966       .  S
C885        C944   1.497       .  S
C886       C1208   1.478       .  S
C887        C932   1.471       .  S
O888        H924   0.990       .  S
O889        C891   1.285       .  A
O890        C891   1.281       .  A
C891       C1169   1.479       .  S
O892       Zr893   2.439       .  S
O892        H921   0.990       .  S
Zr893       O896   2.438       .  S
Zr893       O897   2.439       .  S
Zr893       O898   2.437       .  S
O894        C899   1.286       .  A
O895        H912   0.991   1_455  S
O895        H927   0.990       .  S
O896        H913   0.990       .  S
O897        H917   0.990       .  S
O897        H926   0.990       .  S
O898        C899   1.286       .  A
C899        C980   1.499       .  S
O900        H919   0.990       .  S
O900        H923   0.990       .  S
O901        H915   0.990       .  S
O901        H922   0.990       .  S
O902        C906   1.281       .  A
O903        C906   1.282       .  A
O904        H914   0.991   1_455  S
O905        H918   0.990       .  S
C906        C968   1.457       .  S
C929        C930   1.400       .  A
C929        C934   1.405       .  A
C930        C931   1.401       .  A
C930        H935   1.084       .  S
C931        C932   1.410       .  A
C931        O936   1.372       .  S
C932        C933   1.402       .  A
C933        C934   1.398       .  A
C933        H937   1.084       .  S
C934        O938   1.372       .  S
O936        H940   0.992       .  S
O938        H939   0.992       .  S
C941        C942   1.399       .  A
C941        C946   1.406       .  A
C942        C943   1.398       .  A
C942       H1555   1.083       .  S
C943        C944   1.419       .  A
C943        O948   1.371       .  S
C944        C945   1.410       .  A
C945        C946   1.406       .  A
C945        H949   1.083       .  S
C946        O950   1.371       .  S
O948       H1560   0.992       .  S
O950        H951   0.991       .  S
C953        C954   1.401       .  A
C953        C958   1.407       .  A
C954        C955   1.402       .  A
C954       H1567   1.084       .  S
C955        C956   1.412       .  A
C955        O960   1.372       .  S
C956        C957   1.404       .  A
C957        C958   1.399       .  A
C957        H961   1.084       .  S
C958        O962   1.372       .  S
O960        H964   0.991       .  S
O962        H963   0.991       .  S
C965       C1263   1.471       .  S
C965        C966   1.402       .  A
C965        C970   1.410       .  A
C966        C967   1.398       .  A
C966       H1579   1.083       .  S
C967        C968   1.405       .  A
C967        O972   1.371       .  S
C968        C969   1.397       .  A
C969        C970   1.396       .  A
C969        H973   1.084       .  S
C970        O974   1.372       .  S
O972       H1584   0.992       .  S
O974        H975   0.992       .  S
C977        C978   1.403       .  A
C977        C982   1.405       .  A
C978        C979   1.404       .  A
C978        H983   1.083       .  S
C979        C980   1.417       .  A
C979        O984   1.371       .  S
C980        C981   1.411       .  A
C981        C982   1.405       .  A
C981        H985   1.083       .  S
C982        O986   1.373       .  S
O984        H988   0.992       .  S
O986        H987   0.992       .  S
C989        C990   1.397       .  A
C989        C994   1.406       .  A
C990        C991   1.397       .  A
C990        H995   1.084       .  S
C991        C992   1.414       .  A
C991        O996   1.369       .  S
C992        C993   1.407       .  A
C993        C994   1.400       .  A
C993        H997   1.083       .  S
C994        O998   1.371       .  S
O996       H1000   0.992       .  S
O998        H999   0.991       .  S
C1001      C1002   1.407       .  A
C1001      C1006   1.415       .  A
C1002      C1003   1.397       .  A
C1002      H1007   1.083       .  S
C1003      C1004   1.403       .  A
C1003      O1008   1.373       .  S
C1004      C1005   1.399       .  A
C1005      C1006   1.401       .  A
C1005      H1009   1.084       .  S
C1006      O1010   1.372       .  S
O1008      H1012   0.991       .  S
O1010      H1011   0.992       .  S
C1013      C1256   1.467       .  S
C1013      C1014   1.399       .  A
C1013      C1018   1.403       .  A
C1014      C1015   1.396       .  A
C1014      H1627   1.082       .  S
C1015      C1016   1.412       .  A
C1015      O1020   1.372       .  S
C1016      C1017   1.406       .  A
C1017      C1018   1.397       .  A
C1017      H1021   1.083       .  S
C1018      O1022   1.372       .  S
O1020      H1632   0.992       .  S
O1022      H1023   0.991       .  S
C1025      C1026   1.400       .  A
C1025      C1030   1.405       .  A
C1026      C1027   1.401       .  A
C1026      H1031   1.083       .  S
C1027      C1028   1.410       .  A
C1027      O1032   1.369       .  S
C1028      C1029   1.408       .  A
C1029      C1030   1.407       .  A
C1029      H1033   1.083       .  S
C1030      O1034   1.371       .  S
O1032      H1036   0.991       .  S
O1034      H1035   0.992       .  S
C1037      C1038   1.406       .  A
C1037      C1042   1.412       .  A
C1038      C1039   1.398       .  A
C1038      H1043   1.083       .  S
C1039      C1040   1.403       .  A
C1039      O1044   1.371       .  S
C1040      C1041   1.401       .  A
C1041      C1042   1.400       .  A
C1041      H1653   1.084       .  S
C1042      O1046   1.372       .  S
O1044      H1048   0.991       .  S
O1046      H1655   0.991       .  S
C1049      C1050   1.398       .  A
C1049      C1054   1.407       .  A
C1050      C1051   1.396       .  A
C1050      H1055   1.084       .  S
C1051      C1052   1.408       .  A
C1051      O1056   1.372       .  S
C1052      C1053   1.401       .  A
C1053      C1054   1.399       .  A
C1053      H1057   1.084       .  S
C1054      O1058   1.372       .  S
O1056      H1060   0.992       .  S
O1058      H1059   0.992       .  S
C1061      C1062   1.401       .  A
C1061      C1066   1.405       .  A
C1062      C1063   1.402       .  A
C1062      H1067   1.083       .  S
C1063      C1064   1.415       .  A
C1063      O1068   1.371       .  S
C1064      C1065   1.411       .  A
C1065      C1066   1.404       .  A
C1065      H1069   1.083       .  S
C1066      O1070   1.372       .  S
O1068      H1072   0.992       .  S
O1070      H1679   0.992       .  S
C1073      C1074   1.407       .  A
C1073      C1078   1.412       .  A
C1074      C1075   1.397       .  A
C1074      H1079   1.084       .  S
C1075      C1076   1.404       .  A
C1075      O1080   1.372       .  S
C1076      C1077   1.403       .  A
C1077      C1078   1.403       .  A
C1077      H1081   1.084   1_545  S
C1078      O1082   1.372   1_545  S
O1080      H1084   0.991       .  S
O1082      H1083   0.991       .  S
C1085      C1242   1.479       .  S
C1085      C1086   1.405       .  A
C1085      C1090   1.410       .  A
C1086      C1087   1.402       .  A
C1086      H1699   1.083       .  S
C1087      C1088   1.407       .  A
C1087      O1092   1.372       .  S
C1088      C1089   1.397       .  A
C1089      C1090   1.396       .  A
C1089      H1093   1.084       .  S
C1090      O1094   1.372       .  S
O1092      H1704   0.992       .  S
O1094      H1095   0.992       .  S
C1097      C1098   1.412   1_545  A
C1097      C1102   1.415       .  A
C1098      C1099   1.405   1_565  A
C1098      H1103   1.083       .  S
C1099      C1100   1.404       .  A
C1099      O1104   1.373   1_545  S
C1100      C1101   1.401       .  A
C1101      C1102   1.400       .  A
C1101      H1105   1.083       .  S
C1102      O1106   1.371       .  S
O1104      H1108   0.992       .  S
O1106      H1107   0.992       .  S
C1109      C1110   1.401       .  A
C1109      C1114   1.403       .  A
C1110      C1111   1.401       .  A
C1110      H1723   1.082   1_565  S
C1111      C1112   1.412       .  A
C1111      O1116   1.372   1_565  S
C1112      C1113   1.408       .  A
C1113      C1114   1.397       .  A
C1113      H1117   1.084       .  S
C1114      O1118   1.372       .  S
O1116      H1728   0.992       .  S
O1118      H1119   0.991       .  S
C1121      C1122   1.401       .  A
C1121      C1126   1.405       .  A
C1122      C1123   1.398       .  A
C1122      H1127   1.082       .  S
C1123      C1124   1.412       .  A
C1123      O1128   1.372   1_565  S
C1124      C1125   1.407       .  A
C1125      C1126   1.397       .  A
C1125      H1129   1.083       .  S
C1126      O1130   1.372       .  S
O1128      H1132   0.992       .  S
O1130      H1131   0.992       .  S
C1133      C1134   1.408       .  A
C1133      C1138   1.412       .  A
C1134      C1135   1.405       .  A
C1134      H1139   1.083   1_565  S
C1135      C1136   1.404       .  A
C1135      O1140   1.370   1_565  S
C1136      C1137   1.402       .  A
C1137      C1138   1.402       .  A
C1137      H1141   1.083       .  S
C1138      O1142   1.371       .  S
O1140      H1144   0.992       .  S
O1142      H1143   0.992       .  S
C1145      C1228   1.472       .  S
C1145      C1146   1.399       .  A
C1145      C1150   1.406       .  A
C1146      C1147   1.396       .  A
C1146      H1151   1.084       .  S
C1147      C1148   1.414       .  A
C1147      O1152   1.371       .  S
C1148      C1149   1.407       .  A
C1149      C1150   1.397       .  A
C1149      H1153   1.083       .  S
C1150      O1154   1.371       .  S
O1152      H1156   0.991       .  S
O1154      H1155   0.992       .  S
C1157      C1158   1.402       .  A
C1157      C1162   1.406       .  A
C1158      C1159   1.406       .  A
C1158      H1163   1.082       .  S
C1159      C1160   1.413       .  A
C1159      O1164   1.372       .  S
C1160      C1161   1.404       .  A
C1161      C1162   1.400       .  A
C1161      H1165   1.084       .  S
C1162      O1166   1.371       .  S
O1164      H1168   0.992       .  S
O1166      H1167   0.992       .  S
C1169      C1170   1.408       .  A
C1169      C1174   1.412       .  A
C1170      C1171   1.394       .  A
C1170      H1175   1.084       .  S
C1171      C1172   1.402       .  A
C1171      O1176   1.372       .  S
C1172      C1173   1.400       .  A
C1173      C1174   1.398       .  A
C1173      H1177   1.084       .  S
C1174      O1178   1.372       .  S
O1176      H1180   0.991       .  S
O1178      H1179   0.992       .  S
C1181      C1182   1.401       .  A
C1181      C1186   1.408   1_455  A
C1182      C1183   1.399       .  A
C1182      H1187   1.084       .  S
C1183      C1184   1.406       .  A
C1183      O1188   1.374       .  S
C1184      C1185   1.398   1_455  A
C1185      C1186   1.397       .  A
C1185      H1189   1.084       .  S
C1186      O1190   1.372       .  S
O1188      H1192   0.991       .  S
O1190      H1191   0.992       .  S
C1193      C1194   1.411       .  A
C1193      C1198   1.419       .  A
C1194      C1195   1.407   1_455  A
C1194      H1199   1.083   1_455  S
C1195      C1196   1.408   1_655  A
C1195      O1808   1.371       .  S
C1196      C1197   1.399       .  A
C1197      C1198   1.400       .  A
C1197      H1201   1.080       .  S
C1198      O1202   1.372       .  S
O1200      H1204   0.993       .  S
O1202      H1203   0.990       .  S
C1205      C1206   1.401   1_455  A
C1205      C1210   1.405       .  A
C1206      C1207   1.398       .  A
C1206      H1211   1.084       .  S
C1207      C1208   1.411   1_655  A
C1207      O1212   1.373       .  S
C1208      C1209   1.406       .  A
C1209      C1210   1.398       .  A
C1209      H1213   1.084       .  S
C1210      O1214   1.371       .  S
O1212      H1216   0.991       .  S
O1214      H1215   0.991       .  S
N1217      C1218   1.355   1_455  A
N1217      C1804   1.446       .  S
C1218      C1813   1.469   1_655  S
C1219      C1220   1.373       .  A
C1219      H1222   1.083       .  S
C1220      C1221   1.378   1_655  A
C1220      H1223   1.082       .  S
C1221      C1792   1.465       .  S
N1224      C1228   1.355       .  A
N1224      C1225   1.351       .  A
N1224      C1765   1.441       .  S
C1225      C1780   1.462       .  S
C1225      C1226   1.381       .  A
C1227      H1230   1.082       .  S
N1231      C1232   1.354       .  A
N1231      C1744   1.441       .  S
C1232      C1717   1.469       .  S
C1233      C1234   1.372       .  A
C1233      H1236   1.082       .  S
C1234      C1235   1.382       .  A
C1234      H1237   1.082       .  S
C1235      C1729   1.473       .  S
N1238      C1242   1.358       .  A
N1238      C1239   1.355       .  A
N1238      C1708   1.442       .  S
C1239      C1684   1.475       .  S
C1239      C1240   1.382       .  A
C1240      H1243   1.082       .  S
C1241      H1244   1.082       .  S
N1245      C1246   1.353       .  A
N1245      C1669   1.443       .  S
C1246      C1648   1.469       .  S
C1247      C1248   1.373       .  A
C1247      H1250   1.082       .  S
C1248      C1249   1.381       .  A
C1248      H1251   1.082       .  S
C1249      C1660   1.470       .  S
N1252      C1256   1.353       .  A
N1252      C1253   1.352       .  A
N1252      C1633   1.440       .  S
C1253      C1612   1.465       .  S
C1253      C1254   1.382       .  A
C1254      H1257   1.082       .  S
C1255      H1258   1.082       .  S
N1259      C1263   1.357       .  A
N1259      C1260   1.354       .  A
N1259      C1585   1.445       .  S
C1260      C1597   1.469       .  S
C1260      C1261   1.382       .  A
C1262      H1265   1.082       .  S
N1266      C1267   1.356       .  A
N1266      C1549   1.443       .  S
C1267      C1561   1.474       .  S
C1268      C1269   1.374       .  A
C1268      H1271   1.083       .  S
C1269      C1270   1.378       .  A
C1269      H1272   1.082       .  S
C1270      C1537   1.471       .  S
Zr1273     O1274   2.440       .  S
Zr1273     O1275   2.442       .  S
Zr1273     O1276   2.427       .  S
Zr1273     O1279   2.431       .  S
Zr1273     O1281   2.381       .  S
Zr1273     O1282   2.376       .  S
Zr1273     O1283   2.406       .  S
Zr1273     O1284   2.401       .  S
O1274      H1330   0.990       .  S
O1274      H1338   0.990       .  S
O1275      C1295   1.286       .  A
O1276      C1297   1.282       .  A
O1277     Zr1287   2.425       .  S
O1277      C1296   1.284       .  A
O1278     Zr1286   2.425       .  S
O1278      C1297   1.282       .  A
O1279      C1296   1.285       .  A
O1280     Zr1288   2.428       .  S
O1280      C1295   1.284       .  A
O1281     Zr1286   2.396       .  S
O1281     Zr1288   2.375       .  S
O1282     Zr1287   2.385       .  S
O1282     Zr1288   2.372       .  S
O1282      H1317   0.965       .  S
O1283     Zr1286   2.399       .  S
O1283     Zr1303   2.394       .  S
O1283      H1320   0.965       .  S
O1284     Zr1287   2.388       .  S
O1284     Zr1303   2.397       .  S
Zr1285     O1310   2.449       .  S
Zr1285     O1304   2.447       .  S
Zr1285     O1312   2.426       .  S
Zr1285     O1300   2.423       .  S
Zr1285     O1291   2.399       .  S
Zr1285     O1292   2.404       .  S
Zr1285     O1293   2.377       .  S
Zr1285     O1294   2.379       .  S
Zr1286     O1305   2.437       .  S
Zr1286     O1298   2.435       .  S
Zr1286     O1299   2.437       .  S
Zr1286     O1292   2.392       .  S
Zr1286     O1293   2.386       .  S
Zr1287     O1289   2.435       .  S
Zr1287     O1311   2.439       .  S
Zr1287     O1313   2.416       .  S
Zr1287     O1291   2.389       .  S
Zr1287     O1294   2.386       .  S
Zr1288     O1314   2.437       .  S
Zr1288     O1315   2.436       .  S
Zr1288     O1290   2.437       .  S
Zr1288     O1291   2.397       .  S
Zr1288     O1292   2.394       .  S
O1289      H1326   0.990       .  S
O1290      H1321   0.990       .  S
O1290      H1335   0.990       .  S
O1292      H1318   0.965       .  S
O1293     Zr1303   2.377       .  S
O1294     Zr1303   2.376       .  S
O1294      H1319   0.965       .  S
C1295      C1672   1.496       .  S
C1296      C1564   1.479       .  S
C1297      C1657   1.459       .  S
O1298      H1334   0.990       .  S
O1299      C1301   1.287       .  A
O1300      C1301   1.282       .  A
C1301      C1600   1.485       .  S
O1302     Zr1303   2.440       .  S
O1302      H1331   0.990       .  S
Zr1303     O1306   2.437       .  S
Zr1303     O1307   2.438       .  S
Zr1303     O1308   2.429       .  S
O1304      C1309   1.288       .  A
O1305      H1322   0.990       .  S
O1305      H1337   0.990       .  S
O1306      H1323   0.990       .  S
O1307      H1327   0.990       .  S
O1307      H1336   0.990       .  S
O1308      C1309   1.284       .  A
C1309      C1636   1.489       .  S
O1310      H1329   0.990       .  S
O1310      H1333   0.990       .  S
O1311      H1325   0.990       .  S
O1311      H1332   0.990       .  S
O1312      C1316   1.284       .  A
O1313      C1316   1.282       .  A
O1314      H1324   0.990       .  S
O1315      H1328   0.990       .  S
C1316      C1624   1.476       .  S
Zr1339     O1340   2.439       .  S
Zr1339     O1341   2.444       .  S
Zr1339     O1342   2.422       .  S
Zr1339     O1345   2.424       .  S
Zr1339     O1347   2.383   1_565  S
Zr1339     O1348   2.376       .  S
Zr1339     O1349   2.409       .  S
Zr1339     O1350   2.401       .  S
O1340      H1396   0.990       .  S
O1340      H1404   0.990       .  S
O1341      C1361   1.286       .  A
O1342      C1363   1.283       .  A
O1343     Zr1353   2.427       .  S
O1343      C1362   1.284       .  A
O1344     Zr1352   2.421   1_565  S
O1344      C1363   1.282       .  A
O1345      C1362   1.283       .  A
O1346     Zr1354   2.432       .  S
O1346      C1361   1.284   1_545  A
O1347     Zr1352   2.398       .  S
O1347     Zr1354   2.375       .  S
O1348     Zr1353   2.387       .  S
O1348     Zr1354   2.371   1_565  S
O1348      H1383   0.966       .  S
O1349     Zr1352   2.400   1_565  S
O1349     Zr1369   2.397       .  S
O1349      H1386   0.966       .  S
O1350     Zr1353   2.393       .  S
O1350     Zr1369   2.397       .  S
Zr1351     O1376   2.444       .  S
Zr1351     O1370   2.439       .  S
Zr1351     O1378   2.423       .  S
Zr1351     O1366   2.427       .  S
Zr1351     O1357   2.401       .  S
Zr1351     O1358   2.405       .  S
Zr1351     O1359   2.378       .  S
Zr1351     O1360   2.380   1_545  S
Zr1352     O1371   2.437       .  S
Zr1352     O1364   2.436       .  S
Zr1352     O1365   2.431       .  S
Zr1352     O1358   2.391       .  S
Zr1352     O1359   2.385       .  S
Zr1353     O1355   2.435       .  S
Zr1353     O1377   2.438       .  S
Zr1353     O1379   2.428       .  S
Zr1353     O1357   2.391   1_565  S
Zr1353     O1360   2.391       .  S
Zr1354     O1380   2.436       .  S
Zr1354     O1381   2.435       .  S
Zr1354     O1356   2.436       .  S
Zr1354     O1357   2.400       .  S
Zr1354     O1358   2.395       .  S
O1355      H1392   0.990       .  S
O1356      H1387   0.990       .  S
O1356      H1401   0.990       .  S
O1358      H1384   0.965       .  S
O1359     Zr1369   2.378   1_545  S
O1360     Zr1369   2.376       .  S
O1360      H1385   0.965       .  S
C1361      C1741   1.489       .  S
C1362      C1645   1.480       .  S
C1363      C1732   1.480       .  S
O1364      H1400   0.990       .  S
O1365      C1367   1.286       .  A
O1366      C1367   1.283       .  A
C1367      C1609   1.486       .  S
O1368     Zr1369   2.440       .  S
O1368      H1397   0.990       .  S
Zr1369     O1372   2.438       .  S
Zr1369     O1373   2.439       .  S
Zr1369     O1374   2.427       .  S
O1370      C1375   1.286       .  A
O1371      H1388   0.990       .  S
O1371      H1403   0.990   1_545  S
O1372      H1389   0.990       .  S
O1373      H1393   0.990       .  S
O1373      H1402   0.990       .  S
O1374      C1375   1.283   1_565  A
C1375      C1705   1.495       .  S
O1376      H1395   0.990       .  S
O1376      H1399   0.991       .  S
O1377      H1391   0.990       .  S
O1377      H1398   0.989       .  S
O1378      C1382   1.282       .  A
O1379      C1382   1.282   1_565  A
O1380      H1390   0.990       .  S
O1381      H1394   0.990       .  S
C1382      C1696   1.463       .  S
Zr1405     O1406   2.440   1_455  S
Zr1405     O1407   2.456       .  S
Zr1405     O1408   2.428       .  S
Zr1405     O1411   2.417   1_455  S
Zr1405     O1413   2.381       .  S
Zr1405     O1414   2.380       .  S
Zr1405     O1415   2.409       .  S
Zr1405     O1416   2.404   1_465  S
O1406      H1462   0.991       .  S
O1406      H1470   0.990       .  S
O1407      C1427   1.288       .  A
O1408      C1429   1.283       .  A
O1409     Zr1419   2.433   1_655  S
O1409      C1428   1.285   1_545  A
O1410     Zr1418   2.418       .  S
O1410      C1429   1.281       .  A
O1411      C1428   1.282       .  A
O1412     Zr1420   2.425       .  S
O1412      C1427   1.282       .  A
O1413     Zr1418   2.400       .  S
O1413     Zr1420   2.377       .  S
O1414     Zr1419   2.386   1_565  S
O1414     Zr1420   2.376       .  S
O1414      H1449   0.966       .  S
O1415     Zr1418   2.402       .  S
O1415     Zr1435   2.402   1_565  S
O1415      H1452   0.965       .  S
O1416     Zr1419   2.389   1_655  S
O1416     Zr1435   2.397   1_655  S
Zr1417     O1442   2.442       .  S
Zr1417     O1436   2.443       .  S
Zr1417     O1444   2.422       .  S
Zr1417     O1432   2.422       .  S
Zr1417     O1423   2.400       .  S
Zr1417     O1424   2.401   1_545  S
Zr1417     O1425   2.372       .  S
Zr1417     O1426   2.380       .  S
Zr1418     O1437   2.438       .  S
Zr1418     O1430   2.434       .  S
Zr1418     O1431   2.438       .  S
Zr1418     O1424   2.390       .  S
Zr1418     O1425   2.383   1_565  S
Zr1419     O1421   2.436   1_455  S
Zr1419     O1443   2.436       .  S
Zr1419     O1445   2.427       .  S
Zr1419     O1423   2.390       .  S
Zr1419     O1426   2.386       .  S
Zr1420     O1446   2.437       .  S
Zr1420     O1447   2.435       .  S
Zr1420     O1422   2.436       .  S
Zr1420     O1423   2.397   1_565  S
Zr1420     O1424   2.396       .  S
O1421      H1458   0.990       .  S
O1422      H1453   0.990       .  S
O1422      H1467   0.990       .  S
O1424      H1450   0.965       .  S
O1425     Zr1435   2.372       .  S
O1426     Zr1435   2.373       .  S
O1426      H1451   0.965       .  S
C1427      C1801   1.502       .  S
C1428      C1720   1.483       .  S
C1429      C1789   1.465       .  S
O1430      H1466   0.990       .  S
O1431      C1433   1.286   1_565  A
O1432      C1433   1.284       .  A
C1433      C1681   1.483       .  S
O1434     Zr1435   2.439   1_655  S
O1434      H1463   0.990       .  S
Zr1435     O1438   2.438       .  S
Zr1435     O1439   2.438   1_455  S
Zr1435     O1440   2.433       .  S
O1436      C1441   1.287       .  A
O1437      H1454   0.990       .  S
O1437      H1469   0.990       .  S
O1438      H1455   0.990       .  S
O1439      H1459   0.990       .  S
O1439      H1468   0.990       .  S
O1440      C1441   1.284       .  A
C1441      C1768   1.485       .  S
O1442      H1461   0.990       .  S
O1442      H1465   0.990       .  S
O1443      H1457   0.990       .  S
O1443      H1464   0.990       .  S
O1444      C1448   1.284       .  A
O1445      C1448   1.285       .  A
O1446      H1456   0.990       .  S
O1447      H1460   0.990       .  S
C1448      C1756   1.483       .  S
Zr1471     O1472   2.439       .  S
Zr1471     O1473   2.452       .  S
Zr1471     O1474   2.434       .  S
Zr1471     O1477   2.423       .  S
Zr1471     O1479   2.382       .  S
Zr1471     O1480   2.378   1_655  S
Zr1471     O1481   2.409   1_655  S
Zr1471     O1482   2.405   1_655  S
O1472      H1528   0.990       .  S
O1472      H1536   0.990       .  S
O1473      C1493   1.287       .  A
O1474      C1495   1.283       .  A
O1475     Zr1485   2.419       .  S
O1475      C1494   1.283       .  A
O1476     Zr1484   2.426   1_655  S
O1476      C1495   1.283       .  A
O1477      C1494   1.283   1_655  A
O1478     Zr1486   2.418   1_655  S
O1478      C1493   1.281       .  A
O1479     Zr1484   2.397   1_655  S
O1479     Zr1486   2.379   1_655  S
O1480     Zr1485   2.390       .  S
O1480     Zr1486   2.375       .  S
O1480      H1515   0.966       .  S
O1481     Zr1484   2.401       .  S
O1481     Zr1501   2.400       .  S
O1481      H1518   0.966       .  S
O1482     Zr1485   2.390       .  S
O1482     Zr1501   2.400       .  S
Zr1483     O1508   2.448       .  S
Zr1483     O1502   2.439       .  S
Zr1483     O1510   2.419       .  S
Zr1483     O1498   2.411       .  S
Zr1483     O1489   2.397       .  S
Zr1483     O1490   2.404       .  S
Zr1483     O1491   2.377       .  S
Zr1483     O1492   2.375       .  S
Zr1484     O1503   2.438       .  S
Zr1484     O1496   2.435   1_455  S
Zr1484     O1497   2.431       .  S
Zr1484     O1490   2.395       .  S
Zr1484     O1491   2.390       .  S
Zr1485     O1487   2.435       .  S
Zr1485     O1509   2.439       .  S
Zr1485     O1511   2.422       .  S
Zr1485     O1489   2.391       .  S
Zr1485     O1492   2.386       .  S
Zr1486     O1512   2.436       .  S
Zr1486     O1513   2.436       .  S
Zr1486     O1488   2.437   1_455  S
Zr1486     O1489   2.395       .  S
Zr1486     O1490   2.391       .  S
O1487      H1524   0.990       .  S
O1488      H1519   0.990       .  S
O1488      H1533   0.990       .  S
O1490      H1516   0.965       .  S
O1491     Zr1501   2.373       .  S
O1492     Zr1501   2.373       .  S
O1492      H1517   0.966       .  S
C1493      C1552   1.498       .  S
C1494      C1816   1.477       .  S
C1495      C1540   1.471       .  S
O1496      H1532   0.990       .  S
O1497      C1499   1.285       .  A
O1498      C1499   1.281       .  A
C1499      C1777   1.479       .  S
O1500     Zr1501   2.439       .  S
O1500      H1529   0.990       .  S
Zr1501     O1504   2.438       .  S
Zr1501     O1505   2.439       .  S
Zr1501     O1506   2.437       .  S
O1502      C1507   1.286       .  A
O1503      H1520   0.991   1_455  S
O1503      H1535   0.990       .  S
O1504      H1521   0.990       .  S
O1505      H1525   0.990       .  S
O1505      H1534   0.990       .  S
O1506      C1507   1.286       .  A
C1507      C1588   1.499       .  S
O1508      H1527   0.990       .  S
O1508      H1531   0.990       .  S
O1509      H1523   0.990       .  S
O1509      H1530   0.989       .  S
O1510      C1514   1.281       .  A
O1511      C1514   1.282       .  A
O1512      H1522   0.991   1_455  S
O1513      H1526   0.990       .  S
C1514      C1576   1.457       .  S
C1537      C1538   1.400       .  A
C1537      C1542   1.406       .  A
C1538      C1539   1.401       .  A
C1538      H1543   1.084       .  S
C1539      C1540   1.410       .  A
C1539      O1544   1.372       .  S
C1540      C1541   1.402       .  A
C1541      C1542   1.398       .  A
C1541      H1545   1.084       .  S
C1542      O1546   1.372       .  S
O1544      H1548   0.992       .  S
O1546      H1547   0.992       .  S
C1549      C1550   1.399       .  A
C1549      C1554   1.406       .  A
C1550      C1551   1.399       .  A
C1551      C1552   1.419       .  A
C1551      O1556   1.371       .  S
C1552      C1553   1.410       .  A
C1553      C1554   1.406       .  A
C1553      H1557   1.083       .  S
C1554      O1558   1.371       .  S
O1558      H1559   0.991       .  S
C1561      C1562   1.401       .  A
C1561      C1566   1.407       .  A
C1562      C1563   1.402       .  A
C1563      C1564   1.412       .  A
C1563      O1568   1.372       .  S
C1564      C1565   1.404       .  A
C1565      C1566   1.399       .  A
C1565      H1569   1.084       .  S
C1566      O1570   1.372       .  S
O1568      H1572   0.991       .  S
O1570      H1571   0.991       .  S
C1573      C1574   1.402       .  A
C1573      C1578   1.410       .  A
C1574      C1575   1.398       .  A
C1575      C1576   1.405       .  A
C1575      O1580   1.371       .  S
C1576      C1577   1.397       .  A
C1577      C1578   1.396       .  A
C1577      H1581   1.084       .  S
C1578      O1582   1.372       .  S
O1582      H1583   0.992       .  S
C1585      C1586   1.403       .  A
C1585      C1590   1.405       .  A
C1586      C1587   1.404       .  A
C1586      H1591   1.083       .  S
C1587      C1588   1.417       .  A
C1587      O1592   1.371       .  S
C1588      C1589   1.411       .  A
C1589      C1590   1.405       .  A
C1589      H1593   1.083       .  S
C1590      O1594   1.373       .  S
O1592      H1596   0.992       .  S
O1594      H1595   0.992       .  S
C1597      C1598   1.398       .  A
C1597      C1602   1.406       .  A
C1598      C1599   1.397       .  A
C1598      H1603   1.084       .  S
C1599      C1600   1.414       .  A
C1599      O1604   1.369       .  S
C1600      C1601   1.406       .  A
C1601      C1602   1.400       .  A
C1601      H1605   1.083       .  S
C1602      O1606   1.371       .  S
O1604      H1608   0.992       .  S
O1606      H1607   0.991       .  S
C1609      C1610   1.407       .  A
C1609      C1614   1.415       .  A
C1610      C1611   1.397       .  A
C1610      H1615   1.083       .  S
C1611      C1612   1.403       .  A
C1611      O1616   1.373       .  S
C1612      C1613   1.399       .  A
C1613      C1614   1.401       .  A
C1613      H1617   1.084       .  S
C1614      O1618   1.372       .  S
O1616      H1620   0.991       .  S
O1618      H1619   0.992       .  S
C1621      C1622   1.399       .  A
C1621      C1626   1.403       .  A
C1622      C1623   1.396       .  A
C1623      C1624   1.412       .  A
C1623      O1628   1.372       .  S
C1624      C1625   1.406       .  A
C1625      C1626   1.397       .  A
C1625      H1629   1.083       .  S
C1626      O1630   1.372       .  S
O1630      H1631   0.991       .  S
C1633      C1634   1.400       .  A
C1633      C1638   1.405       .  A
C1634      C1635   1.401       .  A
C1634      H1639   1.083       .  S
C1635      C1636   1.410       .  A
C1635      O1640   1.369       .  S
C1636      C1637   1.408       .  A
C1637      C1638   1.407       .  A
C1637      H1641   1.084       .  S
C1638      O1642   1.371       .  S
O1640      H1644   0.991       .  S
O1642      H1643   0.992       .  S
C1645      C1646   1.406       .  A
C1645      C1650   1.411       .  A
C1646      C1647   1.398       .  A
C1646      H1651   1.083       .  S
C1647      C1648   1.404       .  A
C1647      O1652   1.371       .  S
C1648      C1649   1.401       .  A
C1649      C1650   1.400       .  A
C1650      O1654   1.372       .  S
O1652      H1656   0.991       .  S
C1657      C1658   1.398       .  A
C1657      C1662   1.407       .  A
C1658      C1659   1.396       .  A
C1658      H1663   1.084       .  S
C1659      C1660   1.408       .  A
C1659      O1664   1.372       .  S
C1660      C1661   1.401       .  A
C1661      C1662   1.399       .  A
C1661      H1665   1.084       .  S
C1662      O1666   1.372       .  S
O1664      H1668   0.992       .  S
O1666      H1667   0.992       .  S
C1669      C1670   1.402       .  A
C1669      C1674   1.405       .  A
C1670      C1671   1.403       .  A
C1670      H1675   1.083       .  S
C1671      C1672   1.415       .  A
C1671      O1676   1.371       .  S
C1672      C1673   1.411       .  A
C1673      C1674   1.404       .  A
C1673      H1677   1.083       .  S
C1674      O1678   1.372       .  S
O1676      H1680   0.992       .  S
C1681      C1682   1.406       .  A
C1681      C1686   1.412       .  A
C1682      C1683   1.397       .  A
C1682      H1687   1.084       .  S
C1683      C1684   1.405       .  A
C1683      O1688   1.371       .  S
C1684      C1685   1.403       .  A
C1685      C1686   1.402       .  A
C1685      H1689   1.084   1_545  S
C1686      O1690   1.372   1_545  S
O1688      H1692   0.991       .  S
O1690      H1691   0.992       .  S
C1693      C1694   1.405       .  A
C1693      C1698   1.410       .  A
C1694      C1695   1.402       .  A
C1695      C1696   1.407       .  A
C1695      O1700   1.372       .  S
C1696      C1697   1.397       .  A
C1697      C1698   1.396       .  A
C1697      H1701   1.084       .  S
C1698      O1702   1.372       .  S
O1702      H1703   0.992       .  S
C1705      C1706   1.412   1_545  A
C1705      C1710   1.415       .  A
C1706      C1707   1.405   1_565  A
C1706      H1711   1.083       .  S
C1707      C1708   1.404       .  A
C1707      O1712   1.373   1_545  S
C1708      C1709   1.402       .  A
C1709      C1710   1.400       .  A
C1709      H1713   1.083       .  S
C1710      O1714   1.371       .  S
O1712      H1716   0.992       .  S
O1714      H1715   0.992       .  S
C1717      C1718   1.401       .  A
C1717      C1722   1.403       .  A
C1718      C1719   1.401       .  A
C1719      C1720   1.412       .  A
C1719      O1724   1.372   1_565  S
C1720      C1721   1.408       .  A
C1721      C1722   1.397       .  A
C1721      H1725   1.084       .  S
C1722      O1726   1.372       .  S
O1726      H1727   0.991       .  S
C1729      C1730   1.401       .  A
C1729      C1734   1.404       .  A
C1730      C1731   1.397       .  A
C1730      H1735   1.081       .  S
C1731      C1732   1.412       .  A
C1731      O1736   1.372   1_565  S
C1732      C1733   1.407       .  A
C1733      C1734   1.396       .  A
C1733      H1737   1.083       .  S
C1734      O1738   1.372       .  S
O1736      H1740   0.992       .  S
O1738      H1739   0.992       .  S
C1741      C1742   1.408       .  A
C1741      C1746   1.412       .  A
C1742      C1743   1.405       .  A
C1742      H1747   1.083   1_565  S
C1743      C1744   1.404       .  A
C1743      O1748   1.370   1_565  S
C1744      C1745   1.403       .  A
C1745      C1746   1.403       .  A
C1745      H1749   1.083       .  S
C1746      O1750   1.371       .  S
O1748      H1752   0.992       .  S
O1750      H1751   0.992       .  S
C1753      C1754   1.399       .  A
C1753      C1758   1.406       .  A
C1754      C1755   1.396       .  A
C1754      H1759   1.084       .  S
C1755      C1756   1.414       .  A
C1755      O1760   1.371       .  S
C1756      C1757   1.407       .  A
C1757      C1758   1.397       .  A
C1757      H1761   1.083       .  S
C1758      O1762   1.371   1_556  S
O1760      H1764   0.991       .  S
O1762      H1763   0.992   1_554  S
C1765      C1766   1.402       .  A
C1765      C1770   1.406       .  A
C1766      C1767   1.406       .  A
C1766      H1771   1.082       .  S
C1767      C1768   1.413       .  A
C1767      O1772   1.372       .  S
C1768      C1769   1.404       .  A
C1769      C1770   1.400       .  A
C1769      H1773   1.084       .  S
C1770      O1774   1.371       .  S
O1772      H1776   0.992       .  S
O1774      H1775   0.992       .  S
C1777      C1778   1.408       .  A
C1777      C1782   1.412       .  A
C1778      C1779   1.394       .  A
C1778      H1783   1.084       .  S
C1779      C1780   1.402       .  A
C1779      O1784   1.372       .  S
C1780      C1781   1.400       .  A
C1781      C1782   1.398       .  A
C1781      H1785   1.084       .  S
C1782      O1786   1.372       .  S
O1784      H1788   0.991       .  S
O1786      H1787   0.992       .  S
C1789      C1790   1.401       .  A
C1789      C1794   1.408   1_455  A
C1790      C1791   1.399       .  A
C1790      H1795   1.084       .  S
C1791      C1792   1.406       .  A
C1791      O1796   1.374       .  S
C1792      C1793   1.398   1_455  A
C1793      C1794   1.397       .  A
C1793      H1797   1.084       .  S
C1794      O1798   1.372       .  S
O1796      H1800   0.991       .  S
O1798      H1799   0.992       .  S
C1801      C1802   1.411       .  A
C1801      C1806   1.419       .  A
C1802      C1803   1.407   1_455  A
C1802      H1807   1.083   1_455  S
C1803      C1804   1.408   1_655  A
C1804      C1805   1.399       .  A
C1805      C1806   1.400       .  A
C1805      H1809   1.080       .  S
C1806      O1810   1.372       .  S
O1808      H1812   0.993       .  S
O1810      H1811   0.990       .  S
C1813      C1814   1.401   1_455  A
C1813      C1818   1.405       .  A
C1814      C1815   1.398       .  A
C1814      H1819   1.084       .  S
C1815      C1816   1.411   1_655  A
C1815      O1820   1.373       .  S
C1816      C1817   1.406       .  A
C1817      C1818   1.398       .  A
C1817      H1821   1.084       .  S
C1818      O1822   1.371       .  S
O1820      H1824   0.991       .  S
O1822      H1823   0.991       .  S
