geometry optimzed in LAMMPS
_audit_creation_date              2020-11-30 
_audit_creation_method            'lammps2cif' 
_symmetry_space_group_name_H-M    'P1' 
_symmetry_Int_Tables_number       1 
_symmetry_cell_setting            triclinic 
loop_ 
_symmetry_equiv_pos_as_xyz 
  x,y,z 
_cell_length_a                    31.741662792423124 
_cell_length_b                    24.98259186772901 
_cell_length_c                    27.955214724526517 
_cell_angle_alpha                 89.99973185781283 
_cell_angle_beta                  90.00032561189676 
_cell_angle_gamma                 116.5438344769055 
loop_ 
_atom_site_label 
_atom_site_type_symbol 
_atom_site_fract_x 
_atom_site_fract_y 
_atom_site_fract_z 
_atom_site_charge 
O1          O  0.10999901  0.07433752  0.46156507    -0.82180
O2          O  0.43043728  0.45171401  0.58754142    -0.66860
O3          O  0.02114649  0.48064612  0.48828851    -1.13470
C4          C  0.44056384  0.07599035  0.40795162     1.04710
O5          O  0.36747075  0.44659468  0.54655216    -0.80070
O6          O  0.38903230  0.41646431  0.45617781    -0.67650
Ni7        Ni  0.08649008  0.00244187  0.49899473     1.34870
C8          C  0.41675044  0.42015251  0.42219558     0.83450
O9          O  0.00266050  0.41675440  0.57480223    -0.80610
O10         O  0.07029193  0.43245918  0.53694381    -0.90890
C11         C  0.38786423  0.44600445  0.58565235     0.83020
O12         O  0.09435992  0.04878189  0.55529727    -0.69090
O13         O  0.40414337  0.03109409  0.42406701    -0.88380
C14         C  0.06633680  0.05744053  0.58299697     0.83850
C15         C  0.04061333  0.40967926  0.57056754     1.05420
H16         H  0.46626215  0.05328622  0.52237243     0.37220
O17         O  0.45774972  0.01684921  0.50441699    -1.11040
O18         O  0.45884003  0.46411176  0.41858723    -0.67690
Ni19       Ni  0.00291487  0.03357366  0.45462256     1.26350
O20         O  0.02148333  0.03310516  0.57732844    -0.67920
O21         O  0.48210441  0.08606463  0.42152399    -0.80210
C22         C  0.09808167  0.07584091  0.41864622     0.83240
O23         O  0.05392276  0.05344827  0.40742579    -0.67380
Ni24       Ni  0.39163855  0.48752813  0.48576028     1.27450
Ni25       Ni  0.47811013  0.46548118  0.53961167     1.26060
H26         H  0.00994693  0.44366637  0.47052450     0.37780
O27         O  0.13104625  0.12808025  0.62794367    -0.82180
O28         O  0.15157933  0.17488807  0.86116700    -0.66860
O29         O  0.14091470  0.13005784  0.72603164    -1.13470
C30         C  0.48475735  0.05870588  0.76632429     1.04710
O31         O  0.11033327  0.08304778  0.84420758    -0.80070
O32         O  0.03495917  0.00387040  0.81446645    -0.67650
Ni33       Ni  0.17417368  0.18132746  0.67538553     1.34870
C34         C  0.04268577  0.98825903  0.77461863     0.83450
O35         O  0.21852781  0.20497171  0.78861095    -0.80610
O36         O  0.22221340  0.23935412  0.71465991    -0.90890
C37         C  0.12874580  0.12043151  0.87580427     0.83020
O38         O  0.13683116  0.22170024  0.68870556    -0.69090
O39         O  0.99281823  0.07323817  0.81062368    -0.88380
C40         C  0.13850017  0.24987968  0.72764019     0.83850
C41         C  0.23743731  0.24620076  0.75732494     1.05420
H42         H  0.07546788  0.16514809  0.79206024     0.37220
O43         O  0.08410324  0.13285691  0.78846054    -1.11040
O44         O  0.05990004  0.02452173  0.73939234    -0.67690
Ni45       Ni  0.07363516  0.10813479  0.72629058     1.26350
O46         O  0.14936222  0.23662269  0.76907602    -0.67920
O47         O  0.00971409  0.09281313  0.73325068    -0.80210
C48         C  0.08704369  0.09315212  0.62628797     0.83240
O49         O  0.06040842  0.08364205  0.66186524    -0.67380
Ni50       Ni  0.05100834  0.07974183  0.83540696     1.27450
Ni51       Ni  0.15059901  0.16308794  0.79038737     1.26060
H52         H  0.14629106  0.09491951  0.72564764     0.37780
O53         O  0.05487323  0.34217386  0.86942571    -0.82180
O54         O  0.02975591  0.36643571  0.64659310    -0.66860
O55         O  0.05579376  0.32834430  0.77115626    -1.13470
C56         C  0.21160083  0.44337293  0.74099820     1.04710
O57         O  0.09576924  0.38143074  0.60956772    -0.80070
O58         O  0.12273415  0.31750199  0.68178048    -0.67650
Ni59       Ni  0.00908785  0.31253123  0.82060344     1.34870
C60         C  0.13187004  0.30334012  0.72356342     0.83450
O61         O  0.98065452  0.28509406  0.70699449    -0.80610
O62         O  0.95623495  0.27225448  0.77960914    -0.90890
C63         C  0.05544722  0.38197521  0.61024658     0.83020
O64         O  0.01729502  0.89245672  0.80785133    -0.69090
O65         O  0.19862406  0.42009756  0.69980411    -0.88380
C66         C  0.02923164  0.92529892  0.77012701     0.83850
C67         C  0.45413428  0.28941312  0.73815484     1.05420
H68         H  0.10861487  0.44531829  0.70292915     0.37220
O69         O  0.10698876  0.40603251  0.70712046    -1.11040
O70         O  0.13847348  0.33556920  0.76143757    -0.67690
Ni71       Ni  0.11858647  0.39719678  0.77294824     1.26350
O72         O  0.02963945  0.40637685  0.72853402    -0.67920
O73         O  0.18421726  0.45431330  0.76891598    -0.80210
C74         C  0.08940974  0.39310678  0.87113352     0.83240
O75         O  0.12469604  0.40376222  0.84336066    -0.67380
Ni76       Ni  0.14470140  0.39798906  0.65892911     1.27450
Ni77       Ni  0.04334261  0.34494554  0.70686119     1.26060
H78         H  0.05764653  0.29089760  0.76961934     0.37780
O79         O  0.39801209  0.47420815  0.66322863    -0.82180
O80         O  0.40019834  0.38630906  0.84593492    -0.66860
O81         O  0.36874818  0.38425299  0.71770294    -1.13470
C82         C  0.25571670  0.44354366  0.75789179     1.04710
O83         O  0.35129465  0.41302066  0.88333915    -0.80070
O84         O  0.28420423  0.32622517  0.81247205    -0.67650
Ni85       Ni  0.41967629  0.41780686  0.67562566     1.34870
C86         C  0.27058985  0.30920045  0.76911581     0.83450
O87         O  0.41577606  0.34038311  0.77007985    -0.80610
O88         O  0.44006285  0.35926476  0.69309516    -0.90890
C89         C  0.39047416  0.40940143  0.88117038     0.83020
O90         O  0.46336915  0.48024715  0.71217837    -0.69090
O91         O  0.25423065  0.41333440  0.79561501    -0.88380
C92         C  0.45775744  0.99674358  0.75313173     0.83850
C93         C  0.43441919  0.33105998  0.73261831     1.05420
H94         H  0.36835212  0.47531651  0.79375004     0.37220
O95         O  0.34843214  0.43335691  0.78784717    -1.11040
O96         O  0.27980572  0.34616210  0.73367969    -0.67690
Ni97       Ni  0.33119962  0.42471142  0.72155200     1.26350
O98         O  0.43432168  0.46041827  0.78455793    -0.67920
O99         O  0.29036839  0.46208534  0.72876120    -0.80210
C100        C  0.36695510  0.44935123  0.63299853     0.83240
O101        O  0.32491203  0.42050616  0.64997005    -0.67380
Ni102      Ni  0.30263658  0.40756600  0.83576382     1.27450
Ni103      Ni  0.38229980  0.38517537  0.78198323     1.26060
H104        H  0.35017988  0.34332081  0.70759365     0.37780
O105        O  0.12841587  0.03762021  0.16323006    -0.82180
O106        O  0.12622854  0.12551492  0.34593533    -0.66860
O107        O  0.15767991  0.12757464  0.21770438    -1.13470
C108        C  0.27071044  0.06828203  0.25789327     1.04710
O109        O  0.17513437  0.09880768  0.38334112    -0.80070
O110        O  0.24222483  0.18560217  0.31247325    -0.67650
Ni111      Ni  0.10675159  0.09402144  0.17562671     1.34870
C112        C  0.25583891  0.20262687  0.26911698     0.83450
O113        O  0.11065068  0.17144103  0.27008142    -0.80610
O114        O  0.08636470  0.15256313  0.19309628    -0.90890
C115        C  0.13595415  0.10242542  0.38117181     0.83020
O116        O  0.06305820  0.03158072  0.21217873    -0.69090
O117        O  0.27219721  0.09849135  0.29561658    -0.88380
C118        C  0.06867127  0.51508283  0.25313057     0.83850
C119        C  0.09200768  0.18076569  0.23262029     1.05420
H120        H  0.15807699  0.03651014  0.29375161     0.37220
O121        O  0.17799632  0.07846994  0.28784870    -1.11040
O122        O  0.24662271  0.16566507  0.23368111    -0.67690
Ni123      Ni  0.19522831  0.08711596  0.22155355     1.26350
O124        O  0.09210722  0.05140621  0.28455790    -0.67920
O125        O  0.23605863  0.04974107  0.22876274    -0.80210
C126        C  0.15947288  0.06247686  0.13300012     0.83240
O127        O  0.20151593  0.09132178  0.14997181    -0.67380
Ni128      Ni  0.22379200  0.10426114  0.33576553     1.27450
Ni129      Ni  0.14412788  0.12665028  0.28198443     1.26060
H130        H  0.17624822  0.16850709  0.20759564     0.37780
O131        O  0.39538174  0.38374536  0.12794296    -0.82180
O132        O  0.37485082  0.33693934  0.36116749    -0.66860
O133        O  0.38551400  0.38176883  0.22603161    -1.13470
C134        C  0.04167241  0.45311987  0.26632214     1.04710
O135        O  0.41609918  0.42877838  0.34420639    -0.80070
O136        O  0.49147291  0.50795549  0.31446713    -0.67650
Ni137      Ni  0.35225430  0.33049923  0.17538561     1.34870
C138        C  0.48374334  0.52356710  0.27462043     0.83450
O139        O  0.30790164  0.30685572  0.28861158    -0.80610
O140        O  0.30421447  0.27247335  0.21466048    -0.90890
C141        C  0.39768558  0.39139609  0.37580376     0.83020
O142        O  0.38959599  0.29012519  0.18870593    -0.69090
O143        O  0.03361268  0.43858601  0.31062133    -0.88380
C144        C  0.38792686  0.26194548  0.22764064     0.83850
C145        C  0.28899136  0.26562670  0.25732573     1.05420
H146        H  0.45096152  0.34667686  0.29205848     0.37220
O147        O  0.44232649  0.37896847  0.28845971    -1.11040
O148        O  0.46652800  0.48730481  0.23939406    -0.67690
Ni149      Ni  0.45279353  0.40369239  0.22629005     1.26350
O150        O  0.37706586  0.27520312  0.26907649    -0.67920
O151        O  0.01671479  0.41901382  0.23324858    -0.80210
C152        C  0.43938402  0.41867523  0.12628753     0.83240
O153        O  0.46601926  0.42818748  0.16186529    -0.67380
Ni154      Ni  0.47542336  0.43208290  0.33540590     1.27450
Ni155      Ni  0.37583055  0.34873865  0.29038748     1.26060
H156        H  0.38013746  0.41690703  0.22564760     0.37780
O157        O  0.47154950  0.16965434  0.36942733    -0.82180
O158        O  0.49667110  0.14538985  0.14659650    -0.66860
O159        O  0.47063171  0.18348059  0.27115872    -1.13470
C160        C  0.31482552  0.06845139  0.24099936     1.04710
O161        O  0.43065774  0.13039433  0.10957001    -0.80070
O162        O  0.40369183  0.19432238  0.18178141    -0.67650
Ni163      Ni  0.51733678  0.19929340  0.32060714     1.34870
C164        C  0.39455591  0.20848429  0.22356407     0.83450
O165        O  0.04577102  0.22673179  0.20699957    -0.80610
O166        O  0.07019132  0.23956660  0.27961464    -0.90890
C167        C  0.47098023  0.12985105  0.11024929     0.83180
O168        O  0.50912957  0.11936509  0.30785873    -0.69090
O169        O  0.32780215  0.09172652  0.19980508    -0.88380
C170        C  0.49719527  0.58652687  0.27012964     0.83850
C171        C  0.07229164  0.22241104  0.23815914     1.05420
H172        H  0.41781203  0.06650640  0.20293182     0.37220
O173        O  0.41943769  0.10579196  0.20712273    -1.11040
O174        O  0.38795187  0.17625485  0.26143823    -0.67690
Ni175      Ni  0.40783916  0.11462764  0.27295004     1.26350
O176        O  0.49678765  0.10544917  0.22853867    -0.67920
O177        O  0.34220895  0.05751038  0.26891708    -0.80210
C178        C  0.43701480  0.11872008  0.37113515     0.83240
O179        O  0.40172830  0.10806269  0.34336205    -0.67380
Ni180      Ni  0.38172511  0.11383529  0.15893066     1.27450
Ni181      Ni  0.48308354  0.16687955  0.20686446     1.26060
H182        H  0.46877882  0.22092722  0.26962137     0.37780
O183        O  0.41642932  0.43749095  0.96156328    -0.82180
O184        O  0.09599093  0.06011420  0.08754256    -0.66860
O185        O  0.50528255  0.03118505  0.98828881    -1.13470
C186        C  0.08586270  0.43583656  0.90795115     1.04710
O187        O  0.15895739  0.06523354  0.04655382    -0.80070
O188        O  0.13739700  0.09536437  0.95617902    -0.67650
Ni189      Ni  0.43993790  0.50938594  0.99899368     1.34870
C190        C  0.10967942  0.09167721  0.92219624     0.83450
O191        O  0.02376809  0.09507438  0.07480399    -0.80610
O192        O  0.45613713  0.07937118  0.03694465    -0.90890
C193        C  0.13856391  0.06582369  0.08565377     0.83020
O194        O  0.43206760  0.46304469  0.05529588    -0.69090
O195        O  0.12228673  0.98073234  0.92406769    -0.88380
C196        C  0.46009074  0.45438640  0.08299621     0.83850
C197        C  0.48581512  0.10214943  0.07056938     1.05420
H198        H  0.06016455  0.45854043  0.02237232     0.37220
O199        O  0.06868081  0.99497927  0.00441730    -1.11040
O200        O  0.06758917  0.04771937  0.91858771    -0.67690
Ni201      Ni  0.02351295  0.47825487  0.95462193     1.26350
O202        O  0.50494426  0.47872206  0.07732816    -0.67920
O203        O  0.04432256  0.42576362  0.92152347    -0.80210
C204        C  0.42834679  0.43598739  0.91864462     0.83240
O205        O  0.47250562  0.45838120  0.90742443    -0.67380
Ni206      Ni  0.13478970  0.02430007  0.98576191     1.27450
Ni207      Ni  0.04831838  0.04634827  0.03961264     1.26060
H208        H  0.51648238  0.06816510  0.97052501     0.37780
O209        O  0.10999710  0.57433712  0.46156429    -0.82180
O210        O  0.43043992  0.95171228  0.58754181    -0.66860
O211        O  0.02114914  0.98064572  0.48828886    -1.13470
C212        C  0.44056225  0.57599154  0.40795075     1.04710
O213        O  0.36747313  0.94659255  0.54655287    -0.80070
O214        O  0.38903447  0.91646283  0.45617804    -0.67650
Ni215      Ni  0.08648723  0.50244126  0.49899429     1.34870
C216        C  0.41675277  0.92015148  0.42219584     0.83450
O217        O  0.00266390  0.91675406  0.57480238    -0.80610
O218        O  0.07029550  0.93245989  0.53694378    -0.90890
C219        C  0.38786670  0.94600213  0.58565296     0.83020
O220        O  0.09435768  0.54878154  0.55529677    -0.69090
O221        O  0.40414150  0.53109562  0.42406608    -0.88380
C222        C  0.06633490  0.55744044  0.58299677     0.83850
C223        C  0.04061701  0.90967953  0.57056747     1.05420
H224        H  0.46626012  0.55328752  0.52237199     0.37220
O225        O  0.45774751  0.51685046  0.50441658    -1.11040
O226        O  0.45884236  0.96411085  0.41858779    -0.67690
Ni227      Ni  0.00291271  0.53357453  0.45462217     1.26350
O228        O  0.02148138  0.53310583  0.57732827    -0.67920
O229        O  0.48210259  0.58606557  0.42152369    -0.80210
C230        C  0.09807952  0.57584241  0.41864573     0.83240
O231        O  0.05392060  0.55344935  0.40742540    -0.67380
Ni232      Ni  0.39164066  0.98752636  0.48576101     1.27450
Ni233      Ni  0.47811285  0.96548028  0.53961190     1.26060
H234        H  0.00994988  0.94366604  0.47052479     0.37780
O235        O  0.13104515  0.62807849  0.62794386    -0.82180
O236        O  0.15157820  0.67488688  0.86116739    -0.66860
O237        O  0.14091316  0.63005597  0.72603209    -1.13470
C238        C  0.48475565  0.55870974  0.76632315     1.04710
O239        O  0.11032935  0.58304746  0.84420752    -0.80070
O240        O  0.03495489  0.50387179  0.81446695    -0.67650
Ni241      Ni  0.17417341  0.68132456  0.67538594     1.34870
C242        C  0.04268257  0.48826005  0.77461973     0.83450
O243        O  0.21852686  0.70496776  0.78861177    -0.80610
O244        O  0.22221397  0.73935014  0.71466049    -0.90890
C245        C  0.12874282  0.62043050  0.87580440     0.83020
O246        O  0.13683271  0.72169980  0.68870543    -0.69090
O247        O  0.99281622  0.57324239  0.81062247    -0.88380
C248        C  0.13850206  0.74987947  0.72763998     0.83850
C249        C  0.23743751  0.74619653  0.75732570     1.05420
H250        H  0.07546790  0.66515040  0.79205944     0.37220
O251        O  0.08410216  0.63285820  0.78846026    -1.11040
O252        O  0.05989748  0.52452233  0.73939332    -0.67690
Ni253      Ni  0.07363404  0.60813553  0.72629044     1.26350
O254        O  0.14936350  0.73662214  0.76907595    -0.67920
O255        O  0.00971343  0.59281647  0.73324975    -0.80210
C256        C  0.08704233  0.59315148  0.62628800     0.83240
O257        O  0.06040716  0.58364200  0.66186527    -0.67380
Ni258      Ni  0.05100540  0.57974400  0.83540659     1.27450
Ni259      Ni  0.15059786  0.66308637  0.79038774     1.26060
H260        H  0.14628850  0.59491687  0.72564837     0.37780
O261        O  0.05487413  0.84217555  0.86942602    -0.82180
O262        O  0.02975963  0.86643444  0.64659225    -0.66860
O263        O  0.05579685  0.82834413  0.77115607    -1.13470
C264        C  0.21160411  0.94337168  0.74099924     1.04710
O265        O  0.09577417  0.88143340  0.60956755    -0.80070
O266        O  0.12273758  0.81750284  0.68178017    -0.67650
Ni267      Ni  0.00909024  0.81253021  0.82060257     1.34870
C268        C  0.13187281  0.80334034  0.72356319     0.83450
O269        O  0.98065814  0.78509274  0.70699290    -0.80610
O270        O  0.95623871  0.77225020  0.77960739    -0.90890
C271        C  0.05545141  0.88197575  0.61024619     0.83020
O272        O  0.01729398  0.39245854  0.80785332    -0.69090
O273        O  0.19862758  0.92009724  0.69980488    -0.88380
C274        C  0.02922927  0.42530017  0.77012869     0.83850
C275        C  0.45413754  0.78941001  0.73815342     1.05420
H276        H  0.10861810  0.94531834  0.70292938     0.37220
O277        O  0.10699224  0.90603267  0.70712057    -1.11040
O278        O  0.13847613  0.83556896  0.76143759    -0.67690
Ni279      Ni  0.11858943  0.89719660  0.77294851     1.26350
O280        O  0.02964220  0.90637584  0.72853238    -0.67920
O281        O  0.18422061  0.95431243  0.76891691    -0.80210
C282        C  0.08941162  0.89310768  0.87113355     0.83240
O283        O  0.12469800  0.90376161  0.84336105    -0.67380
Ni284      Ni  0.14470554  0.89799019  0.65892944     1.27450
Ni285      Ni  0.04334617  0.84494490  0.70686054     1.26060
H286        H  0.05764966  0.79089744  0.76961941     0.37780
O287        O  0.39801417  0.97420458  0.66322961    -0.82180
O288        O  0.40020143  0.88630637  0.84593628    -0.66860
O289        O  0.36875049  0.88424870  0.71770385    -1.13470
C290        C  0.25571946  0.94354074  0.75789281     1.04710
O291        O  0.35129672  0.91301694  0.88333985    -0.80070
O292        O  0.28420560  0.82622070  0.81247284    -0.67650
Ni293      Ni  0.41967845  0.91780338  0.67562639     1.34870
C294        C  0.27059109  0.80919603  0.76911658     0.83450
O295        O  0.41577932  0.84037944  0.77008050    -0.80610
O296        O  0.44006528  0.85926166  0.69309546    -0.90890
C297        C  0.39047692  0.90939943  0.88117125     0.83020
O298        O  0.46337115  0.98024370  0.71217917    -0.69090
O299        O  0.25423288  0.91333080  0.79561576    -0.88380
C300        C  0.45775543  0.49674735  0.75313081     0.83850
C301        C  0.43442219  0.83105676  0.73261843     1.05420
H302        H  0.36835432  0.97531210  0.79375086     0.37220
O303        O  0.34843440  0.93335248  0.78784802    -1.11040
O304        O  0.27980771  0.84615777  0.73368039    -0.67690
Ni305      Ni  0.33120191  0.92470710  0.72155289     1.26350
O306        O  0.43432415  0.96041425  0.78455883    -0.67920
O307        O  0.29037106  0.96208162  0.72876214    -0.80210
C308        C  0.36695735  0.94934782  0.63299936     0.83240
O309        O  0.32491433  0.92050213  0.64997085    -0.67380
Ni310      Ni  0.30263865  0.90756189  0.83576449     1.27450
Ni311      Ni  0.38230249  0.88517136  0.78198426     1.26060
H312        H  0.35018224  0.84331649  0.70759458     0.37780
O313        O  0.12841365  0.53762294  0.16323039    -0.82180
O314        O  0.12622634  0.62551956  0.34593532    -0.66860
O315        O  0.15767775  0.62757882  0.21770386    -1.13470
C316        C  0.27070810  0.56828542  0.25789340     1.04710
O317        O  0.17513264  0.59881247  0.38334060    -0.80070
O318        O  0.24222368  0.68560704  0.31247272    -0.67650
Ni319      Ni  0.10674947  0.59402435  0.17562621     1.34870
C320        C  0.25583785  0.70263156  0.26911641     0.83450
O321        O  0.11064796  0.67144558  0.27008012    -0.80610
O322        O  0.08636250  0.65256599  0.19309476    -0.90890
C323        C  0.13595205  0.60242926  0.38117143     0.83020
O324        O  0.06305631  0.53158420  0.21217880    -0.69090
O325        O  0.27219534  0.59849549  0.29561638    -0.88380
C326        C  0.06867309  0.01507849  0.25313020     0.83850
C327        C  0.09200508  0.68076926  0.23261830     1.05420
H328        H  0.15807497  0.53651523  0.29375156     0.37220
O329        O  0.17799434  0.57847498  0.28784851    -1.11040
O330        O  0.24662087  0.66566961  0.23368048    -0.67690
Ni331      Ni  0.19522621  0.58712024  0.22155339     1.26350
O332        O  0.09210504  0.55141120  0.28455800    -0.67920
O333        O  0.23605627  0.54974494  0.22876290    -0.80210
C334        C  0.15947037  0.56247901  0.13300012     0.83240
O335        O  0.20151346  0.59132486  0.14997153    -0.67380
Ni336      Ni  0.22379024  0.60426590  0.33576513     1.27450
Ni337      Ni  0.14412564  0.62665511  0.28198401     1.26060
H338        H  0.17624600  0.66851115  0.20759480     0.37780
O339        O  0.39538344  0.88374894  0.12794301    -0.82180
O340        O  0.37485166  0.83693887  0.36116728    -0.66860
O341        O  0.38551588  0.88177106  0.22603188    -1.13470
C342        C  0.04167400  0.95311525  0.26632106     1.04710
O343        O  0.41610331  0.92877713  0.34420658    -0.80070
O344        O  0.49147741  0.00795288  0.31446866    -0.67650
Ni345      Ni  0.35225497  0.83050327  0.17538536     1.34870
C346        C  0.48374655  0.02356540  0.27462285     0.83450
O347        O  0.30790272  0.80685964  0.28861148    -0.80610
O348        O  0.30421412  0.77247792  0.21465992    -0.90890
C349        C  0.39768842  0.89139520  0.37580382     0.83020
O350        O  0.38959464  0.79012634  0.18870446    -0.69090
O351        O  0.03361473  0.93858034  0.31062006    -0.88380
C352        C  0.38792513  0.76194598  0.22763887     0.83850
C353        C  0.28899131  0.76563121  0.25732532     1.05420
H354        H  0.45096148  0.84667353  0.29205690     0.37220
O355        O  0.44232767  0.87896633  0.28845906    -1.11040
O356        O  0.46653074  0.98730409  0.23939599    -0.67690
Ni357      Ni  0.45279494  0.90369182  0.22628978     1.26350
O358        O  0.37706457  0.77520340  0.26907500    -0.67920
O359        O  0.01671555  0.91901016  0.23324751    -0.80210
C360        C  0.43938598  0.91867771  0.12628770     0.83240
O361        O  0.46602101  0.92818881  0.16186549    -0.67380
Ni362      Ni  0.47542647  0.93207912  0.33540562     1.27450
Ni363      Ni  0.37583180  0.84873971  0.29038732     1.26060
H364        H  0.38014043  0.91691009  0.22564852     0.37780
O365        O  0.47155040  0.66965430  0.36942547    -0.82180
O366        O  0.49666720  0.64539046  0.14659343    -0.66860
O367        O  0.47062944  0.68348172  0.27115613    -1.13470
C368        C  0.31482274  0.56845330  0.24099940     1.04710
O369        O  0.43065246  0.63039090  0.10956798    -0.80070
O370        O  0.40368840  0.69432177  0.18177917    -0.67650
Ni371      Ni  0.51733562  0.69929592  0.32060352     1.34870
C372        C  0.39455344  0.70848450  0.22356198     0.83450
O373        O  0.04576787  0.72673320  0.20699482    -0.80610
O374        O  0.07018831  0.73957251  0.27960957    -0.90890
C375        C  0.47097556  0.62984931  0.11024695     0.83180
O376        O  0.50912969  0.61936831  0.30785435    -0.69090
O377        O  0.32779886  0.59172713  0.19980469    -0.88380
C378        C  0.49719715  0.08652486  0.27013334     0.83850
C379        C  0.07228887  0.72241469  0.23815506     1.05420
H380        H  0.41780894  0.56650658  0.20293050     0.37220
O381        O  0.41943448  0.60579212  0.20712112    -1.11040
O382        O  0.38794993  0.67625581  0.26143647    -0.67690
Ni383      Ni  0.40783704  0.61462880  0.27294862     1.26350
O384        O  0.49678516  0.60545039  0.22853486    -0.67920
O385        O  0.34220634  0.55751225  0.26891697    -0.80210
C386        C  0.43701435  0.61872115  0.37113347     0.83240
O387        O  0.40172771  0.60806524  0.34336079    -0.67380
Ni388      Ni  0.38172093  0.61383411  0.15892944     1.27450
Ni389      Ni  0.48308032  0.66688035  0.20686141     1.26060
H390        H  0.46877652  0.72092832  0.26961880     0.37780
O391        O  0.41643195  0.93749460  0.96156353    -0.82180
O392        O  0.09598796  0.56011444  0.08754190    -0.66860
O393        O  0.50527887  0.53118253  0.98828825    -1.13470
C394        C  0.08586540  0.93583779  0.90795143     1.04710
O395        O  0.15895421  0.56523195  0.04655379    -0.80070
O396        O  0.13739406  0.59536311  0.95617912    -0.67650
Ni397      Ni  0.43994186  0.00938993  0.99899415     1.34870
C398        C  0.10967654  0.59167587  0.92219629     0.83450
O399        O  0.02376405  0.59507309  0.07480248    -0.80610
O400        O  0.45613209  0.57936700  0.03694372    -0.90890
C401        C  0.13856096  0.56582388  0.08565345     0.83020
O402        O  0.43207077  0.96304833  0.05529625    -0.69090
O403        O  0.12228379  0.48073136  0.92406749    -0.88380
C404        C  0.46009339  0.95438890  0.08299649     0.83850
C405        C  0.48581051  0.60214687  0.07056779     1.05420
H406        H  0.06016770  0.95854177  0.02237245     0.37220
O407        O  0.06867766  0.49497782  0.00441703    -1.11040
O408        O  0.06758630  0.54771795  0.91858767    -0.67690
Ni409      Ni  0.02351602  0.97825660  0.95462243     1.26350
O410        O  0.50494693  0.97872332  0.07732838    -0.67920
O411        O  0.04432540  0.92576522  0.92152397    -0.80210
C412        C  0.42834966  0.93598848  0.91864525     0.83240
O413        O  0.47250850  0.95838262  0.90742509    -0.67380
Ni414      Ni  0.13478660  0.52429872  0.98576181     1.27450
Ni415      Ni  0.04831500  0.54634704  0.03961188     1.26060
H416        H  0.51647821  0.56816242  0.97052429     0.37780
O417        O  0.60999902  0.07433767  0.46156499    -0.82180
O418        O  0.93043736  0.45171419  0.58754144    -0.66860
O419        O  0.52114643  0.48064603  0.48828849    -1.13470
C420        C  0.94056380  0.07599031  0.40795166     1.04710
O421        O  0.86747082  0.44659471  0.54655216    -0.80070
O422        O  0.88903238  0.41646435  0.45617781    -0.67650
Ni423      Ni  0.58649015  0.00244199  0.49899461     1.34870
C424        C  0.91675052  0.42015256  0.42219558     0.83450
O425        O  0.50266042  0.41675425  0.57480219    -0.80610
O426        O  0.57029188  0.43245911  0.53694379    -0.90890
C427        C  0.88786431  0.44600459  0.58565235     0.83020
O428        O  0.59435996  0.04878197  0.55529716    -0.69090
O429        O  0.90414333  0.03109406  0.42406708    -0.88380
C430        C  0.56633683  0.05744054  0.58299689     0.83850
C431        C  0.54061327  0.40967915  0.57056751     1.05420
H432        H  0.96626212  0.05328623  0.52237247     0.37220
O433        O  0.95774968  0.01684921  0.50441706    -1.11040
O434        O  0.95884011  0.46411183  0.41858724    -0.67690
Ni435      Ni  0.50291490  0.03357371  0.45462249     1.26350
O436        O  0.52148335  0.03310511  0.57732837    -0.67920
O437        O  0.98210438  0.08606457  0.42152401    -0.80210
C438        C  0.59808168  0.07584106  0.41864613     0.83240
O439        O  0.55392278  0.05344837  0.40742570    -0.67380
Ni440      Ni  0.89163861  0.48752816  0.48576027     1.27450
Ni441      Ni  0.97811020  0.46548131  0.53961169     1.26060
H442        H  0.50994687  0.44366628  0.47052447     0.37780
O443        O  0.63104629  0.12808024  0.62794358    -0.82180
O444        O  0.65157941  0.17488802  0.86116689    -0.66860
O445        O  0.64091477  0.13005785  0.72603152    -1.13470
C446        C  0.98475726  0.05870609  0.76632425     1.04710
O447        O  0.61033353  0.08304766  0.84420751    -0.80070
O448        O  0.53495943  0.00387023  0.81446627    -0.67650
Ni449      Ni  0.67417370  0.18132752  0.67538543     1.34870
C450        C  0.54268585  0.98825888  0.77461836     0.83450
O451        O  0.71852789  0.20497180  0.78861081    -0.80610
O452        O  0.72221340  0.23935425  0.71465980    -0.90890
C453        C  0.62874598  0.12043146  0.87580418     0.83020
O454        O  0.63683111  0.22170019  0.68870550    -0.69090
O455        O  0.49281837  0.07323785  0.81062373    -0.88380
C456        C  0.63850013  0.24987962  0.72764013     0.83850
C457        C  0.73743734  0.24620089  0.75732482     1.05420
H458        H  0.57546792  0.16514787  0.79206027     0.37220
O459        O  0.58410332  0.13285674  0.78846049    -1.11040
O460        O  0.55990008  0.02452163  0.73939210    -0.67690
Ni461      Ni  0.57363521  0.10813474  0.72629052     1.26350
O462        O  0.64936219  0.23662262  0.76907595    -0.67920
O463        O  0.50971413  0.09281299  0.73325072    -0.80210
C464        C  0.58704372  0.09315216  0.62628788     0.83240
O465        O  0.56040845  0.08364214  0.66186514    -0.67380
Ni466      Ni  0.55100854  0.07974159  0.83540692     1.27450
Ni467      Ni  0.65059909  0.16308791  0.79038726     1.26060
H468        H  0.64629115  0.09491954  0.72564749     0.37780
O469        O  0.55487325  0.34217380  0.86942568    -0.82180
O470        O  0.52975586  0.36643557  0.64659306    -0.66860
O471        O  0.55579376  0.32834421  0.77115622    -1.13470
C472        C  0.71160081  0.44337296  0.74099813     1.04710
O473        O  0.59576920  0.38143067  0.60956768    -0.80070
O474        O  0.62273414  0.31750196  0.68178043    -0.67650
Ni475      Ni  0.50908787  0.31253111  0.82060342     1.34870
C476        C  0.63187003  0.30334008  0.72356336     0.83450
O477        O  0.48065450  0.28509391  0.70699447    -0.80610
O478        O  0.45623496  0.27225431  0.77960914    -0.90890
C479        C  0.55544717  0.38197510  0.61024655     0.83020
O480        O  0.51729470  0.89245645  0.80785093    -0.69090
O481        O  0.69862404  0.42009756  0.69980405    -0.88380
C482        C  0.52923152  0.92529872  0.77012666     0.83850
C483        C  0.95413429  0.28941331  0.73815484     1.05420
H484        H  0.60861481  0.44531821  0.70292911     0.37220
O485        O  0.60698872  0.40603244  0.70712041    -1.11040
O486        O  0.63847350  0.33556918  0.76143751    -0.67690
Ni487      Ni  0.61858645  0.39719673  0.77294819     1.26350
O488        O  0.52963939  0.40637671  0.72853399    -0.67920
O489        O  0.68421722  0.45431330  0.76891591    -0.80210
C490        C  0.58940976  0.39310672  0.87113349     0.83240
O491        O  0.62469604  0.40376219  0.84336061    -0.67380
Ni492      Ni  0.64470137  0.39798902  0.65892906     1.27450
Ni493      Ni  0.54334258  0.34494543  0.70686116     1.26060
H494        H  0.55764655  0.29089753  0.76961931     0.37780
O495        O  0.89801215  0.47420836  0.66322862    -0.82180
O496        O  0.90019841  0.38630932  0.84593488    -0.66860
O497        O  0.86874823  0.38425319  0.71770291    -1.13470
C498        C  0.75571669  0.44354375  0.75789174     1.04710
O499        O  0.85129464  0.41302075  0.88333912    -0.80070
O500        O  0.78420424  0.32622528  0.81247197    -0.67650
Ni501      Ni  0.91967635  0.41780707  0.67562564     1.34870
C502        C  0.77058988  0.30920057  0.76911572     0.83450
O503        O  0.91577614  0.34038338  0.77007984    -0.80610
O504        O  0.94006290  0.35926495  0.69309513    -0.90890
C505        C  0.89047418  0.40940160  0.88117036     0.83020
O506        O  0.96336922  0.48024733  0.71217836    -0.69090
O507        O  0.75423064  0.41333449  0.79561495    -0.88380
C508        C  0.95775737  0.99674376  0.75313176     0.83850
C509        C  0.93441924  0.33106020  0.73261830     1.05420
H510        H  0.86835209  0.47531667  0.79375002     0.37220
O511        O  0.84843214  0.43335707  0.78784714    -1.11040
O512        O  0.77980575  0.34616225  0.73367961    -0.67690
Ni513      Ni  0.83119965  0.42471159  0.72155197     1.26350
O514        O  0.93432169  0.46041852  0.78455789    -0.67920
O515        O  0.79036838  0.46208546  0.72876115    -0.80210
C516        C  0.86695517  0.44935142  0.63299851     0.83240
O517        O  0.82491209  0.42050634  0.64997001    -0.67380
Ni518      Ni  0.80263657  0.40756609  0.83576377     1.27450
Ni519      Ni  0.88229985  0.38517559  0.78198320     1.26060
H520        H  0.85017994  0.34332100  0.70759363     0.37780
O521        O  0.62841590  0.03762042  0.16322999    -0.82180
O522        O  0.62622859  0.12551519  0.34593529    -0.66860
O523        O  0.65767995  0.12757485  0.21770432    -1.13470
C524        C  0.77071040  0.06828211  0.25789325     1.04710
O525        O  0.67513435  0.09880780  0.38334105    -0.80070
O526        O  0.74222483  0.18560229  0.31247325    -0.67650
Ni527      Ni  0.60675163  0.09402165  0.17562664     1.34870
C528        C  0.75583891  0.20262700  0.26911698     0.83450
O529        O  0.61065076  0.17144133  0.27008135    -0.80610
O530        O  0.58636474  0.15256333  0.19309622    -0.90890
C531        C  0.63595416  0.10242561  0.38117175     0.83020
O532        O  0.56305827  0.03158091  0.21217866    -0.69090
O533        O  0.77219718  0.09849145  0.29561655    -0.88380
C534        C  0.56867123  0.51508287  0.25313060     0.83850
C535        C  0.59200773  0.18076594  0.23262020     1.05420
H536        H  0.65807694  0.03651032  0.29375155     0.37220
O537        O  0.67799630  0.07847011  0.28784865    -1.11040
O538        O  0.74662273  0.16566521  0.23368110    -0.67690
Ni539      Ni  0.69522831  0.08711613  0.22155351     1.26350
O540        O  0.59210721  0.05140649  0.28455786    -0.67920
O541        O  0.73605860  0.04974120  0.22876270    -0.80210
C542        C  0.65947293  0.06247706  0.13300006     0.83240
O543        O  0.70151597  0.09132196  0.14997176    -0.67380
Ni544      Ni  0.72379197  0.10426125  0.33576548     1.27450
Ni545      Ni  0.64412792  0.12665052  0.28198437     1.26060
H546        H  0.67624826  0.16850730  0.20759557     0.37780
O547        O  0.89538177  0.38374537  0.12794296    -0.82180
O548        O  0.87485087  0.33693937  0.36116751    -0.66860
O549        O  0.88551403  0.38176888  0.22603163    -1.13470
C550        C  0.54167236  0.45311992  0.26632220     1.04710
O551        O  0.91609932  0.42877838  0.34420639    -0.80070
O552        O  0.99147305  0.50795546  0.31446718    -0.67650
Ni553      Ni  0.85225433  0.33049928  0.17538562     1.34870
C554        C  0.98374339  0.52356709  0.27462052     0.83450
O555        O  0.80790169  0.30685583  0.28861161    -0.80610
O556        O  0.80421448  0.27247347  0.21466050    -0.90890
C557        C  0.89768568  0.39139612  0.37580377     0.83020
O558        O  0.88959596  0.29012517  0.18870595    -0.69090
O559        O  0.53361260  0.43858611  0.31062140    -0.88380
C560        C  0.88792684  0.26194547  0.22764066     0.83850
C561        C  0.78899137  0.26562683  0.25732574     1.05420
H562        H  0.95096155  0.34667680  0.29205841     0.37220
O563        O  0.94232653  0.37896844  0.28845968    -1.11040
O564        O  0.96652803  0.48730482  0.23939414    -0.67690
Ni565      Ni  0.95279356  0.40369242  0.22629004     1.26350
O566        O  0.87706585  0.27520312  0.26907651    -0.67920
O567        O  0.51671476  0.41901383  0.23324865    -0.80210
C568        C  0.93938403  0.41867530  0.12628753     0.83240
O569        O  0.96601928  0.42818760  0.16186530    -0.67380
Ni570      Ni  0.97542348  0.43208283  0.33540588     1.27450
Ni571      Ni  0.87583060  0.34873868  0.29038749     1.26060
H572        H  0.88013750  0.41690708  0.22564763     0.37780
O573        O  0.97154936  0.16965433  0.36942740    -0.82180
O574        O  0.99667107  0.14538968  0.14659663    -0.66860
O575        O  0.97063166  0.18348050  0.27115881    -1.13470
C576        C  0.81482547  0.06845141  0.24099936     1.04710
O577        O  0.93065777  0.13039431  0.10957009    -0.80070
O578        O  0.90369183  0.19432236  0.18178145    -0.67650
Ni579      Ni  0.01733670  0.19929326  0.32060725     1.34870
C580        C  0.89455589  0.20848428  0.22356410     0.83450
O581        O  0.54577105  0.22673197  0.20699942    -0.80610
O582        O  0.57019134  0.23956689  0.27961448    -0.90890
C583        C  0.97098023  0.12985094  0.11024940     0.83180
O584        O  0.00912943  0.11936491  0.30785890    -0.69090
O585        O  0.82780212  0.09172652  0.19980509    -0.88380
C586        C  0.99719525  0.58652684  0.27012978     0.83850
C587        C  0.57229168  0.22241129  0.23815901     1.05420
H588        H  0.91781196  0.06650632  0.20293191     0.37220
O589        O  0.91943763  0.10579189  0.20712281    -1.11040
O590        O  0.88795185  0.17625484  0.26143827    -0.67690
Ni591      Ni  0.90783909  0.11462759  0.27295011     1.26350
O592        O  0.99678757  0.10544902  0.22853882    -0.67920
O593        O  0.84220887  0.05751037  0.26891711    -0.80210
C594        C  0.93701471  0.11872003  0.37113522     0.83240
O595        O  0.90172820  0.10806261  0.34336212    -0.67380
Ni596      Ni  0.88172511  0.11383527  0.15893070     1.27450
Ni597      Ni  0.98308351  0.16687942  0.20686457     1.26060
H598        H  0.96877880  0.22092713  0.26962144     0.37780
O599        O  0.91642931  0.43749113  0.96156328    -0.82180
O600        O  0.59599101  0.06011444  0.08754246    -0.66860
O601        O  0.00528250  0.03118491  0.98828890    -1.13470
C602        C  0.58586271  0.43583649  0.90795114     1.04710
O603        O  0.65895742  0.06523356  0.04655375    -0.80070
O604        O  0.63739707  0.09536437  0.95617895    -0.67650
Ni605      Ni  0.93993793  0.50938609  0.99899371     1.34870
C606        C  0.60967952  0.09167725  0.92219615     0.83450
O607        O  0.52376815  0.09507459  0.07480386    -0.80610
O608        O  0.95613715  0.07937115  0.03694472    -0.90890
C609        C  0.63856396  0.06582385  0.08565368     0.83020
O610        O  0.93206761  0.46304478  0.05529589    -0.69090
O611        O  0.62228671  0.98073226  0.92406764    -0.88380
C612        C  0.96009075  0.45438647  0.08299621     0.83850
C613        C  0.98581511  0.10214931  0.07056949     1.05420
H614        H  0.56016456  0.45854036  0.02237232     0.37220
O615        O  0.56868083  0.99497938  0.00441725    -1.11040
O616        O  0.56758925  0.04771946  0.91858762    -0.67690
Ni617      Ni  0.52351295  0.47825476  0.95462192     1.26350
O618        O  0.00494426  0.47872212  0.07732817    -0.67920
O619        O  0.54432257  0.42576352  0.92152347    -0.80210
C620        C  0.92834679  0.43598756  0.91864462     0.83240
O621        O  0.97250563  0.45838135  0.90742444    -0.67380
Ni622      Ni  0.63478971  0.02430006  0.98576185     1.27450
Ni623      Ni  0.54831843  0.04634845  0.03961254     1.26060
H624        H  0.01648235  0.06816497  0.97052512     0.37780
O625        O  0.60999703  0.57433705  0.46156428    -0.82180
O626        O  0.93043989  0.95171239  0.58754192    -0.66860
O627        O  0.52114920  0.98064576  0.48828874    -1.13470
C628        C  0.94056227  0.57599158  0.40795076     1.04710
O629        O  0.86747309  0.94659256  0.54655295    -0.80070
O630        O  0.88903442  0.91646281  0.45617811    -0.67650
Ni631      Ni  0.58648717  0.50244119  0.49899427     1.34870
C632        C  0.91675272  0.92015143  0.42219593     0.83450
O633        O  0.50266397  0.91675401  0.57480218    -0.80610
O634        O  0.57029562  0.93245999  0.53694363    -0.90890
C635        C  0.88786666  0.94600221  0.58565305     0.83020
O636        O  0.59435760  0.54878145  0.55529675    -0.69090
O637        O  0.90414154  0.53109564  0.42406609    -0.88380
C638        C  0.56633482  0.55744032  0.58299677     0.83850
C639        C  0.54061710  0.90967953  0.57056727     1.05420
H640        H  0.96626016  0.55328762  0.52237197     0.37220
O641        O  0.95774757  0.51685055  0.50441657    -1.11040
O642        O  0.95884232  0.96411079  0.41858788    -0.67690
Ni643      Ni  0.50291265  0.53357444  0.45462217     1.26350
O644        O  0.52148130  0.53310568  0.57732828    -0.67920
O645        O  0.98210263  0.58606564  0.42152367    -0.80210
C646        C  0.59807945  0.57584236  0.41864572     0.83240
O647        O  0.55392052  0.55344927  0.40742538    -0.67380
Ni648      Ni  0.89164062  0.98752635  0.48576108     1.27450
Ni649      Ni  0.97811280  0.96548031  0.53961201     1.26060
H650        H  0.50994996  0.94366610  0.47052465     0.37780
O651        O  0.63104507  0.62807836  0.62794387    -0.82180
O652        O  0.65157811  0.67488682  0.86116738    -0.66860
O653        O  0.64091309  0.63005589  0.72603209    -1.13470
C654        C  0.98475573  0.55870996  0.76632311     1.04710
O655        O  0.61032934  0.58304738  0.84420751    -0.80070
O656        O  0.53495490  0.50387165  0.81446695    -0.67650
Ni657      Ni  0.67417332  0.68132448  0.67538593     1.34870
C658        C  0.54268255  0.48825991  0.77461971     0.83450
O659        O  0.71852678  0.70496775  0.78861176    -0.80610
O660        O  0.72221386  0.73935013  0.71466048    -0.90890
C661        C  0.62874278  0.62043043  0.87580439     0.83020
O662        O  0.63683257  0.72169965  0.68870540    -0.69090
O663        O  0.49281615  0.57324216  0.81062251    -0.88380
C664        C  0.63850192  0.74987934  0.72763994     0.83850
C665        C  0.73743741  0.74619652  0.75732569     1.05420
H666        H  0.57546778  0.66515024  0.79205946     0.37220
O667        O  0.58410207  0.63285806  0.78846027    -1.11040
O668        O  0.55989742  0.52452220  0.73939330    -0.67690
Ni669      Ni  0.57363395  0.60813539  0.72629044     1.26350
O670        O  0.64936335  0.73662203  0.76907592    -0.67920
O671        O  0.50971332  0.59281627  0.73324978    -0.80210
C672        C  0.58704224  0.59315136  0.62628800     0.83240
O673        O  0.56040707  0.58364189  0.66186527    -0.67380
Ni674      Ni  0.55100536  0.57974384  0.83540661     1.27450
Ni675      Ni  0.65059778  0.66308629  0.79038774     1.26060
H676        H  0.64628844  0.59491681  0.72564837     0.37780
O677        O  0.55487371  0.84217563  0.86942590    -0.82180
O678        O  0.52975963  0.86643424  0.64659196    -0.66860
O679        O  0.55579668  0.82834395  0.77115587    -1.13470
C680        C  0.71160396  0.94337156  0.74099926     1.04710
O681        O  0.59577426  0.88143340  0.60956737    -0.80070
O682        O  0.62273752  0.81750273  0.68178007    -0.67650
Ni683      Ni  0.50908999  0.81253000  0.82060229     1.34870
C684        C  0.63187268  0.80334021  0.72356311     0.83450
O685        O  0.48065804  0.78509254  0.70699252    -0.80610
O686        O  0.45623861  0.77224969  0.77960698    -0.90890
C687        C  0.55545147  0.88197567  0.61024595     0.83020
O688        O  0.51729395  0.39245840  0.80785330    -0.69090
O689        O  0.69862749  0.92009711  0.69980489    -0.88380
C690        C  0.52922924  0.42530003  0.77012866     0.83850
C691        C  0.95413765  0.78941033  0.73815376     1.05420
H692        H  0.60861800  0.94531819  0.70292921     0.37220
O693        O  0.60699214  0.90603252  0.70712041    -1.11040
O694        O  0.63847597  0.83556883  0.76143751    -0.67690
Ni695      Ni  0.61858923  0.89719643  0.77294839     1.26350
O696        O  0.52964210  0.90637567  0.72853202    -0.67920
O697        O  0.68422041  0.95431229  0.76891688    -0.80210
C698        C  0.58941136  0.89310763  0.87113343     0.83240
O699        O  0.62469771  0.90376138  0.84336093    -0.67380
Ni700      Ni  0.64470553  0.89799010  0.65892936     1.27450
Ni701      Ni  0.54334608  0.84494472  0.70686028     1.26060
H702        H  0.55764950  0.79089727  0.76961924     0.37780
O703        O  0.89801412  0.97420465  0.66322970    -0.82180
O704        O  0.90020143  0.88630658  0.84593632    -0.66860
O705        O  0.86875044  0.88424880  0.71770393    -1.13470
C706        C  0.75571932  0.94354070  0.75789288     1.04710
O707        O  0.85129659  0.91301687  0.88333996    -0.80070
O708        O  0.78420549  0.82622068  0.81247286    -0.67650
Ni709      Ni  0.91967842  0.91780348  0.67562648     1.34870
C710        C  0.77059099  0.80919603  0.76911660     0.83450
O711        O  0.91577937  0.84037974  0.77008063    -0.80610
O712        O  0.94006528  0.85926178  0.69309557    -0.90890
C713        C  0.89047684  0.90939947  0.88117134     0.83020
O714        O  0.96337115  0.98024378  0.71217925    -0.69090
O715        O  0.75423274  0.91333077  0.79561584    -0.88380
C716        C  0.95775549  0.49674758  0.75313078     0.83850
C717        C  0.93442224  0.83105700  0.73261860     1.05420
H718        H  0.86835413  0.97531215  0.79375096     0.37220
O719        O  0.84843426  0.93335252  0.78784810    -1.11040
O720        O  0.77980763  0.84615779  0.73368042    -0.67690
Ni721      Ni  0.83120181  0.92470715  0.72155296     1.26350
O722        O  0.93432400  0.96041451  0.78455887    -0.67920
O723        O  0.79037093  0.96208161  0.72876221    -0.80210
C724        C  0.86695730  0.94934790  0.63299945     0.83240
O725        O  0.82491428  0.92050221  0.64997092    -0.67380
Ni726      Ni  0.80263852  0.90756184  0.83576457     1.27450
Ni727      Ni  0.88230244  0.88517153  0.78198434     1.26060
H728        H  0.85018220  0.84331658  0.70759469     0.37780
O729        O  0.62841363  0.53762295  0.16323038    -0.82180
O730        O  0.62622632  0.62551963  0.34593534    -0.66860
O731        O  0.65767771  0.62757883  0.21770386    -1.13470
C732        C  0.77070806  0.56828543  0.25789342     1.04710
O733        O  0.67513255  0.59881239  0.38334059    -0.80070
O734        O  0.74222359  0.68560701  0.31247278    -0.67650
Ni735      Ni  0.60674944  0.59402434  0.17562620     1.34870
C736        C  0.75583776  0.70263156  0.26911648     0.83450
O737        O  0.61064795  0.67144568  0.27008010    -0.80610
O738        O  0.58636247  0.65256597  0.19309474    -0.90890
C739        C  0.63595197  0.60242924  0.38117143     0.83020
O740        O  0.56305631  0.53158418  0.21217879    -0.69090
O741        O  0.77219529  0.59849550  0.29561640    -0.88380
C742        C  0.56867314  0.01507873  0.25313016     0.83850
C743        C  0.59200507  0.68076931  0.23261826     1.05420
H744        H  0.65807487  0.53651523  0.29375155     0.37220
O745        O  0.67799427  0.57847497  0.28784851    -1.11040
O746        O  0.74662081  0.66566963  0.23368053    -0.67690
Ni747      Ni  0.69522616  0.58712026  0.22155340     1.26350
O748        O  0.59210496  0.55141129  0.28455802    -0.67920
O749        O  0.73605623  0.54974495  0.22876292    -0.80210
C750        C  0.65947036  0.56247903  0.13300012     0.83240
O751        O  0.70151345  0.59132489  0.14997154    -0.67380
Ni752      Ni  0.72379016  0.60426586  0.33576515     1.27450
Ni753      Ni  0.64412561  0.62665515  0.28198401     1.26060
H754        H  0.67624596  0.66851116  0.20759479     0.37780
O755        O  0.89538335  0.88374888  0.12794310    -0.82180
O756        O  0.87485158  0.83693881  0.36116738    -0.66860
O757        O  0.88551581  0.88177101  0.22603197    -1.13470
C758        C  0.54167407  0.95311549  0.26632103     1.04710
O759        O  0.91610333  0.92877704  0.34420666    -0.80070
O760        O  0.99147744  0.00795273  0.31446876    -0.67650
Ni761      Ni  0.85225487  0.83050325  0.17538545     1.34870
C762        C  0.98374652  0.02356525  0.27462298     0.83450
O763        O  0.80790264  0.80685963  0.28861157    -0.80610
O764        O  0.80421401  0.77247794  0.21466001    -0.90890
C765        C  0.89768839  0.89139514  0.37580391     0.83020
O766        O  0.88959451  0.79012626  0.18870454    -0.69090
O767        O  0.53361478  0.93858060  0.31062004    -0.88380
C768        C  0.88792501  0.76194591  0.22763895     0.83850
C769        C  0.78899121  0.76563122  0.25732541     1.05420
H770        H  0.95096137  0.84667336  0.29205695     0.37220
O771        O  0.94232759  0.87896618  0.28845913    -1.11040
O772        O  0.96653069  0.98730396  0.23939612    -0.67690
Ni773      Ni  0.95279485  0.90369169  0.22628986     1.26350
O774        O  0.87706444  0.77520331  0.26907508    -0.67920
O775        O  0.51671565  0.91901037  0.23324748    -0.80210
C776        C  0.93938590  0.91867761  0.12628778     0.83240
O777        O  0.96602093  0.92818871  0.16186557    -0.67380
Ni778      Ni  0.97542646  0.93207894  0.33540569     1.27450
Ni779      Ni  0.87583172  0.84873964  0.29038741     1.26060
H780        H  0.88014039  0.91691006  0.22564863     0.37780
O781        O  0.97155027  0.66965439  0.36942553    -0.82180
O782        O  0.99666721  0.64539045  0.14659356    -0.66860
O783        O  0.97062941  0.68348170  0.27115622    -1.13470
C784        C  0.81482270  0.56845330  0.24099943     1.04710
O785        O  0.93065250  0.63039098  0.10956807    -0.80070
O786        O  0.90368838  0.69432178  0.18177925    -0.67650
Ni787      Ni  0.01733556  0.69929589  0.32060364     1.34870
C788        C  0.89455338  0.70848448  0.22356206     0.83450
O789        O  0.54576789  0.72673323  0.20699466    -0.80610
O790        O  0.57018831  0.73957268  0.27960940    -0.90890
C791        C  0.97097559  0.62984936  0.11024706     0.83180
O792        O  0.00912959  0.61936824  0.30785451    -0.69090
O793        O  0.82779883  0.59172712  0.19980472    -0.88380
C794        C  0.99719707  0.08652470  0.27013350     0.83850
C795        C  0.57228889  0.72241478  0.23815493     1.05420
H796        H  0.91780892  0.56650658  0.20293058     0.37220
O797        O  0.91943446  0.60579212  0.20712120    -1.11040
O798        O  0.88794988  0.67625579  0.26143655    -0.67690
Ni799      Ni  0.90783699  0.61462879  0.27294869     1.26350
O800        O  0.99678514  0.60545038  0.22853501    -0.67920
O801        O  0.84220628  0.55751225  0.26891702    -0.80210
C802        C  0.93701429  0.61872118  0.37113352     0.83240
O803        O  0.90172764  0.60806521  0.34336086    -0.67380
Ni804      Ni  0.88172094  0.61383414  0.15892951     1.27450
Ni805      Ni  0.98308031  0.66688033  0.20686153     1.26060
H806        H  0.96877649  0.72092830  0.26961889     0.37780
O807        O  0.91643188  0.93749454  0.96156363    -0.82180
O808        O  0.59598796  0.56011443  0.08754187    -0.66860
O809        O  0.00527889  0.53118265  0.98828828    -1.13470
C810        C  0.58586533  0.93583777  0.90795138     1.04710
O811        O  0.65895421  0.56523189  0.04655379    -0.80070
O812        O  0.63739403  0.59536305  0.95617911    -0.67650
Ni813      Ni  0.93994183  0.00938987  0.99899424     1.34870
C814        C  0.60967650  0.59167579  0.92219628     0.83450
O815        O  0.52376402  0.59507303  0.07480242    -0.80610
O816        O  0.95613214  0.57936712  0.03694379    -0.90890
C817        C  0.63856096  0.56582387  0.08565344     0.83020
O818        O  0.93207072  0.96304829  0.05529635    -0.69090
O819        O  0.62228380  0.48073131  0.92406746    -0.88380
C820        C  0.96009332  0.95438877  0.08299657     0.83850
C821        C  0.98581055  0.60214695  0.07056787     1.05420
H822        H  0.56016769  0.95854189  0.02237242     0.37220
O823        O  0.56867766  0.49497775  0.00441703    -1.11040
O824        O  0.56758628  0.54771784  0.91858765    -0.67690
Ni825      Ni  0.52351606  0.97825672  0.95462237     1.26350
O826        O  0.00494685  0.97872310  0.07732842    -0.67920
O827        O  0.54432536  0.92576529  0.92152396    -0.80210
C828        C  0.92834958  0.93598843  0.91864536     0.83240
O829        O  0.97250843  0.95838249  0.90742518    -0.67380
Ni830      Ni  0.63478660  0.52429866  0.98576180     1.27450
Ni831      Ni  0.54831498  0.54634697  0.03961185     1.26060
H832        H  0.01647825  0.56816255  0.97052433     0.37780
loop_ 
_geom_bond_atom_site_label_1 
_geom_bond_atom_site_label_2 
_geom_bond_distance 
_geom_bond_site_symmetry_2 
_ccdc_geom_bond_type 
O1           Ni7   1.918       .  S
O1           C22   1.264       .  A
O2          Ni25   1.933       .  S
O2           C11   1.295       .  A
O3           H26   0.966       .  S
O3         Ni215   1.918       .  S
O3         Ni441   1.899   1_455  S
O3         Ni227   1.911       .  S
C4           O21   1.284       .  A
C4           O13   1.280       .  A
C4          C178   1.523       .  S
O5          Ni24   1.955       .  S
O5           C11   1.274       .  A
O6          Ni24   1.926       .  S
O6            C8   1.270       .  A
Ni7          O12   1.903       .  S
Ni7         O218   1.909   1_545  S
Ni7         O211   1.918   1_545  S
C8           O18   1.300       .  A
C8          C141   1.475       .  S
O9         Ni441   1.976   1_455  S
O9           C15   1.299       .  A
O10        Ni215   1.909       .  S
O10          C15   1.271       .  A
C11         C100   1.500       .  S
O12          C14   1.269       .  A
O13        Ni232   1.983   1_545  S
C14          O20   1.284       .  A
C14          C48   1.473       .  S
C15          C63   1.491       .  S
H16          O17   0.966       .  S
O17        Ni233   1.943   1_545  S
O17        Ni435   1.906       .  S
O17        Ni232   1.959   1_545  S
O18        Ni643   1.953       .  S
Ni19         O23   1.972       .  S
Ni19        O642   1.953   1_445  S
Ni19        O437   1.946   1_455  S
Ni19        O211   1.911   1_545  S
Ni19        O433   1.906   1_455  S
O20        Ni649   1.945   1_445  S
O21        Ni435   1.946       .  S
C22          O23   1.294       .  A
C22         C115   1.507       .  S
Ni24        O221   1.983       .  S
Ni24        O225   1.959       .  S
Ni25        O425   1.976       .  S
Ni25        O644   1.945       .  S
Ni25        O419   1.899       .  S
Ni25        O225   1.943       .  S
O27         Ni33   1.943       .  S
O27          C48   1.275       .  A
O28         Ni51   1.999       .  S
O28          C37   1.289       .  A
O29          H52   0.966       .  S
O29         Ni33   1.884       .  S
O29         Ni51   1.946       .  S
O29         Ni45   1.953       .  S
C30         O463   1.267       .  A
C30         O455   1.284       .  A
C30          C92   1.443   1_545  S
O31         Ni50   1.864       .  S
O31          C37   1.227       .  A
O32         Ni50   1.825       .  S
O32          C34   1.240   1_545  A
Ni33         O36   1.912       .  S
Ni33         O38   1.905       .  S
C34          O44   1.283   1_565  A
C34          C66   1.439       .  S
O35         Ni51   1.931       .  S
O35          C41   1.278       .  A
O36          C41   1.269       .  A
C37         C190   1.475       .  S
O38          C40   1.284       .  A
O39         Ni50   1.910   1_655  S
O39         C446   1.284       .  A
C40          O46   1.293       .  A
C40          C60   1.446       .  S
C41          C86   1.488       .  S
H42          O43   0.966       .  S
O43         Ni51   1.898       .  S
O43         Ni45   1.825       .  S
O43         Ni50   1.828       .  S
O44         Ni45   1.968       .  S
Ni45         O49   1.888       .  S
Ni45         O47   1.899       .  S
O46         Ni51   1.948       .  S
O47         C446   1.267   1_455  A
C48          O49   1.257       .  A
O53         Ni59   1.887       .  S
O53          C74   1.256       .  A
O54         Ni77   1.876       .  S
O54          C63   1.251       .  A
O55          H78   0.964       .  S
O55         Ni59   1.934       .  S
O55         Ni77   1.925       .  S
O55         Ni71   1.967       .  S
C56          O73   1.285       .  A
C56          O65   1.273       .  A
C56          C82   1.476       .  S
O57         Ni76   1.978       .  S
O57          C63   1.286       .  A
O58         Ni76   1.919       .  S
O58          C60   1.290       .  A
Ni59         O62   1.906   1_455  S
Ni59        O272   1.928       .  S
C60          O70   1.289       .  A
O61         Ni77   1.880   1_655  S
O61         C483   1.249       .  A
O62         C483   1.248       .  A
O64        Ni267   1.928       .  S
O64          C66   1.285       .  A
O65         Ni76   1.922       .  S
C66         O280   1.257       .  A
C67         O477   1.249       .  A
C67         O478   1.248       .  A
C67          C93   1.442       .  S
H68          O69   0.967       .  S
O69         Ni77   1.912       .  S
O69         Ni71   1.909       .  S
O69         Ni76   1.872       .  S
O70         Ni71   1.934       .  S
Ni71         O75   1.978       .  S
Ni71         O73   1.932       .  S
O72         Ni77   1.873       .  S
O72         C274   1.257       .  A
C74          O75   1.289       .  A
C74         C186   1.523       .  S
O79         Ni85   1.856       .  S
O79         C100   1.235       .  A
O80        Ni103   1.872       .  S
O80          C89   1.248       .  A
O81         H104   0.967       .  S
O81         Ni85   1.868       .  S
O81        Ni103   1.845       .  S
O81         Ni97   1.879       .  S
C82          O99   1.278       .  A
C82          O91   1.285       .  A
O83        Ni102   1.996       .  S
O83          C89   1.288       .  A
O84        Ni102   1.958       .  S
O84          C86   1.293       .  A
Ni85         O88   1.908       .  S
Ni85         O90   1.862       .  S
C86          O96   1.295       .  A
O87        Ni103   1.885       .  S
O87          C93   1.275       .  A
O88          C93   1.279       .  A
C89         C204   1.507       .  S
O90         C300   1.256       .  A
O91        Ni102   1.959       .  S
C92         O298   1.256       .  A
C92         O306   1.243       .  A
H94          O95   0.966       .  S
O95        Ni103   1.946       .  S
O95         Ni97   1.917       .  S
O95        Ni102   1.867       .  S
O96         Ni97   1.941       .  S
Ni97        O101   2.009       .  S
Ni97         O99   1.917       .  S
O98        Ni103   1.868       .  S
O98         C300   1.243       .  A
C100        O101   1.291       .  A
O105       Ni111   1.856       .  S
O105        C126   1.235       .  A
O106       Ni129   1.872       .  S
O106        C115   1.248       .  A
O107        H130   0.967       .  S
O107       Ni111   1.868       .  S
O107       Ni129   1.845       .  S
O107       Ni123   1.879       .  S
C108        O125   1.278       .  A
C108        O117   1.285       .  A
C108        C160   1.476       .  S
O109       Ni128   1.996       .  S
O109        C115   1.288       .  A
O110       Ni128   1.958       .  S
O110        C112   1.293       .  A
Ni111       O114   1.908       .  S
Ni111       O116   1.862       .  S
C112        O122   1.295       .  A
C112        C145   1.488       .  S
O113       Ni129   1.885       .  S
O113        C119   1.274       .  A
O114        C119   1.279       .  A
O116        C326   1.256       .  A
O117       Ni128   1.959       .  S
C118        O324   1.256       .  A
C118        O332   1.243       .  A
C118        C134   1.443       .  S
C119        C171   1.442       .  S
H120        O121   0.966       .  S
O121       Ni129   1.946       .  S
O121       Ni123   1.917       .  S
O121       Ni128   1.867       .  S
O122       Ni123   1.941       .  S
Ni123       O127   2.009       .  S
Ni123       O125   1.917       .  S
O124       Ni129   1.868       .  S
O124        C326   1.243       .  A
C126        O127   1.291       .  A
C126        C193   1.500       .  S
O131       Ni137   1.943       .  S
O131        C152   1.275       .  A
O132       Ni155   1.999       .  S
O132        C141   1.289       .  A
O133        H156   0.966       .  S
O133       Ni137   1.884       .  S
O133       Ni155   1.946       .  S
O133       Ni149   1.953       .  S
C134        O151   1.267       .  A
C134        O143   1.284       .  A
O135       Ni154   1.864       .  S
O135        C141   1.227       .  A
O136       Ni154   1.825       .  S
O136        C138   1.240       .  A
Ni137       O140   1.912       .  S
Ni137       O142   1.905       .  S
C138        O148   1.283       .  A
C138        C170   1.439       .  S
O139       Ni155   1.931       .  S
O139        C145   1.278       .  A
O140        C145   1.269       .  A
O142        C144   1.284       .  A
O143       Ni570   1.910   1_455  S
C144        O150   1.293       .  A
C144        C164   1.446       .  S
H146        O147   0.966       .  S
O147       Ni155   1.898       .  S
O147       Ni149   1.825       .  S
O147       Ni154   1.828       .  S
O148       Ni149   1.968       .  S
Ni149       O153   1.888       .  S
Ni149       O567   1.899       .  S
O150       Ni155   1.948       .  S
O151       Ni565   1.899   1_455  S
C152        O153   1.257       .  A
C152        C196   1.473       .  S
Ni154       O559   1.910       .  S
O157       Ni163   1.887       .  S
O157        C178   1.256       .  A
O158       Ni181   1.876       .  S
O158        C167   1.251       .  A
O159        H182   0.964       .  S
O159       Ni163   1.934       .  S
O159       Ni181   1.925       .  S
O159       Ni175   1.967       .  S
C160        O177   1.285       .  A
C160        O169   1.273       .  A
O161       Ni180   1.978       .  S
O161        C167   1.286       .  A
O162       Ni180   1.919       .  S
O162        C164   1.290       .  A
Ni163       O168   1.928       .  S
Ni163       O582   1.906       .  S
C164        O174   1.289       .  A
O165       Ni597   1.880   1_455  S
O165        C171   1.249       .  A
O166       Ni579   1.906       .  S
O166        C171   1.248       .  A
C167        C197   1.491       .  S
O168        C378   1.285       .  A
O169       Ni180   1.922       .  S
C170        O376   1.285       .  A
C170        O384   1.257       .  A
H172        O173   0.967       .  S
O173       Ni181   1.912       .  S
O173       Ni175   1.909       .  S
O173       Ni180   1.872       .  S
O174       Ni175   1.934       .  S
Ni175       O179   1.978       .  S
Ni175       O177   1.932       .  S
O176       Ni181   1.873       .  S
O176        C378   1.257       .  A
C178        O179   1.289       .  A
Ni181       O581   1.880       .  S
O183       Ni189   1.918       .  S
O183        C204   1.264       .  A
O184       Ni207   1.933       .  S
O184        C193   1.295       .  A
O185        H208   0.966       .  S
O185       Ni397   1.918       .  S
O185       Ni623   1.899   1_556  S
O185       Ni825   1.911   1_545  S
C186        O203   1.284       .  A
C186        O403   1.280       .  A
O187       Ni206   1.955   1_554  S
O187        C193   1.274       .  A
O188       Ni206   1.926       .  S
O188        C190   1.270       .  A
Ni189       O194   1.903   1_556  S
Ni189       O400   1.909   1_556  S
Ni189       O393   1.918       .  S
C190        O200   1.300       .  A
O191       Ni207   1.976       .  S
O191        C613   1.299   1_455  A
O192       Ni397   1.909   1_554  S
O192        C197   1.271       .  A
O194        C196   1.269       .  A
O195       Ni206   1.983   1_565  S
O195        C394   1.280       .  A
C196        O202   1.284       .  A
C197        O607   1.299       .  A
H198        O407   0.966       .  S
O199        H406   0.966       .  S
O199       Ni207   1.943   1_565  S
O199       Ni206   1.959   1_564  S
O199       Ni409   1.906   1_554  S
O200       Ni409   1.953   1_545  S
Ni201       O203   1.946       .  S
Ni201       O408   1.953       .  S
Ni201       O621   1.972   1_455  S
Ni201       O809   1.911       .  S
Ni201       O407   1.906   1_556  S
O202       Ni831   1.945       .  S
C204        O205   1.294       .  A
O205       Ni617   1.972       .  S
Ni207       O826   1.945   1_545  S
Ni207       O601   1.899   1_554  S
O209       Ni215   1.918       .  S
O209        C230   1.264       .  A
O210       Ni233   1.933       .  S
O210        C219   1.295       .  A
O211        H234   0.966       .  S
O211       Ni649   1.899   1_455  S
C212        O229   1.284       .  A
C212        O221   1.280       .  A
C212        C386   1.523       .  S
O213       Ni232   1.955       .  S
O213        C219   1.274       .  A
O214       Ni232   1.926       .  S
O214        C216   1.270       .  A
Ni215       O220   1.903       .  S
C216        O226   1.300       .  A
C216        C349   1.475       .  S
O217       Ni649   1.976   1_455  S
O217        C223   1.299       .  A
O218        C223   1.271       .  A
C219        C308   1.500       .  S
O220        C222   1.269       .  A
C222        O228   1.284       .  A
C222        C256   1.473       .  S
C223        C271   1.491       .  S
H224        O225   0.966       .  S
O225       Ni643   1.906       .  S
O226       Ni435   1.953   1_565  S
Ni227       O434   1.953   1_455  S
Ni227       O231   1.972       .  S
Ni227       O645   1.946   1_455  S
Ni227       O641   1.906   1_455  S
O228       Ni441   1.945   1_455  S
O229       Ni643   1.946       .  S
C230        O231   1.294       .  A
C230        C323   1.507       .  S
Ni233       O633   1.976       .  S
Ni233       O436   1.945   1_565  S
Ni233       O627   1.899       .  S
O235       Ni241   1.943       .  S
O235        C256   1.275       .  A
O236       Ni259   1.999       .  S
O236        C245   1.289       .  A
O237        H260   0.966       .  S
O237       Ni241   1.884       .  S
O237       Ni259   1.946       .  S
O237       Ni253   1.953       .  S
C238        O671   1.267       .  A
C238        O663   1.284       .  A
C238        C300   1.443       .  S
O239       Ni258   1.864       .  S
O239        C245   1.227       .  A
O240       Ni258   1.825       .  S
O240        C242   1.240       .  A
Ni241       O244   1.912       .  S
Ni241       O246   1.905       .  S
C242        O252   1.283       .  A
C242        C274   1.439       .  S
O243       Ni259   1.931       .  S
O243        C249   1.278       .  A
O244        C249   1.269       .  A
C245        C398   1.475       .  S
O246        C248   1.284       .  A
O247       Ni258   1.910   1_655  S
O247        C654   1.284       .  A
C248        O254   1.293       .  A
C248        C268   1.446       .  S
C249        C294   1.488       .  S
H250        O251   0.966       .  S
O251       Ni259   1.898       .  S
O251       Ni253   1.825       .  S
O251       Ni258   1.828       .  S
O252       Ni253   1.968       .  S
Ni253       O257   1.888       .  S
Ni253       O255   1.899       .  S
O254       Ni259   1.948       .  S
O255        C654   1.267   1_455  A
C256        O257   1.257       .  A
O261       Ni267   1.887       .  S
O261        C282   1.256       .  A
O262       Ni285   1.876       .  S
O262        C271   1.251       .  A
O263        H286   0.964       .  S
O263       Ni267   1.934       .  S
O263       Ni285   1.925       .  S
O263       Ni279   1.967       .  S
C264        O281   1.285       .  A
C264        O273   1.273       .  A
C264        C290   1.476       .  S
O265       Ni284   1.978       .  S
O265        C271   1.286       .  A
O266       Ni284   1.919       .  S
O266        C268   1.290       .  A
Ni267       O270   1.906   1_455  S
C268        O278   1.289       .  A
O269       Ni285   1.880   1_655  S
O269        C691   1.249       .  A
O270        C691   1.248       .  A
O272        C274   1.285       .  A
O273       Ni284   1.922       .  S
C275        O685   1.249       .  A
C275        O686   1.248       .  A
C275        C301   1.442       .  S
H276        O277   0.967       .  S
O277       Ni285   1.912       .  S
O277       Ni279   1.909       .  S
O277       Ni284   1.872       .  S
O278       Ni279   1.934       .  S
Ni279       O283   1.978       .  S
Ni279       O281   1.932       .  S
O280       Ni285   1.873       .  S
C282        O283   1.289       .  A
C282        C394   1.523       .  S
O287       Ni293   1.856       .  S
O287        C308   1.235       .  A
O288       Ni311   1.872       .  S
O288        C297   1.248       .  A
O289        H312   0.967       .  S
O289       Ni293   1.868       .  S
O289       Ni311   1.845       .  S
O289       Ni305   1.879       .  S
C290        O307   1.278       .  A
C290        O299   1.285       .  A
O291       Ni310   1.996       .  S
O291        C297   1.288       .  A
O292       Ni310   1.958       .  S
O292        C294   1.293       .  A
Ni293       O296   1.908       .  S
Ni293       O298   1.862       .  S
C294        O304   1.295       .  A
O295       Ni311   1.885       .  S
O295        C301   1.275       .  A
O296        C301   1.279       .  A
C297        C412   1.507       .  S
O299       Ni310   1.959       .  S
H302        O303   0.966       .  S
O303       Ni311   1.946       .  S
O303       Ni305   1.917       .  S
O303       Ni310   1.867       .  S
O304       Ni305   1.941       .  S
Ni305       O309   2.009       .  S
Ni305       O307   1.917       .  S
O306       Ni311   1.868       .  S
C308        O309   1.291       .  A
O313       Ni319   1.856       .  S
O313        C334   1.235       .  A
O314       Ni337   1.872       .  S
O314        C323   1.248       .  A
O315        H338   0.967       .  S
O315       Ni319   1.868       .  S
O315       Ni337   1.845       .  S
O315       Ni331   1.879       .  S
C316        O333   1.278       .  A
C316        O325   1.285       .  A
C316        C368   1.476       .  S
O317       Ni336   1.996       .  S
O317        C323   1.288       .  A
O318       Ni336   1.958       .  S
O318        C320   1.293       .  A
Ni319       O322   1.908       .  S
Ni319       O324   1.862       .  S
C320        O330   1.295       .  A
C320        C353   1.488       .  S
O321       Ni337   1.885       .  S
O321        C327   1.275       .  A
O322        C327   1.279       .  A
O325       Ni336   1.959       .  S
C326        C342   1.443   1_545  S
C327        C379   1.442       .  S
H328        O329   0.966       .  S
O329       Ni337   1.946       .  S
O329       Ni331   1.917       .  S
O329       Ni336   1.867       .  S
O330       Ni331   1.941       .  S
Ni331       O335   2.009       .  S
Ni331       O333   1.917       .  S
O332       Ni337   1.868       .  S
C334        O335   1.291       .  A
C334        C401   1.500       .  S
O339       Ni345   1.943       .  S
O339        C360   1.275       .  A
O340       Ni363   1.999       .  S
O340        C349   1.289       .  A
O341        H364   0.966       .  S
O341       Ni345   1.884       .  S
O341       Ni363   1.946       .  S
O341       Ni357   1.953       .  S
C342        O359   1.267       .  A
C342        O351   1.284       .  A
O343       Ni362   1.864       .  S
O343        C349   1.227       .  A
O344       Ni362   1.825   1_545  S
O344        C346   1.240       .  A
Ni345       O348   1.912       .  S
Ni345       O350   1.905       .  S
C346        O356   1.283   1_545  A
C346        C378   1.439       .  S
O347       Ni363   1.931       .  S
O347        C353   1.278       .  A
O348        C353   1.269       .  A
O350        C352   1.284       .  A
O351       Ni778   1.910   1_455  S
C352        O358   1.293       .  A
C352        C372   1.446       .  S
H354        O355   0.966       .  S
O355       Ni363   1.898       .  S
O355       Ni357   1.825       .  S
O355       Ni362   1.828       .  S
O356       Ni357   1.968       .  S
Ni357       O361   1.888       .  S
Ni357       O775   1.899       .  S
O358       Ni363   1.948       .  S
O359       Ni773   1.899   1_455  S
C360        O361   1.257       .  A
C360        C404   1.473       .  S
Ni362       O767   1.910       .  S
O365       Ni371   1.887       .  S
O365        C386   1.256       .  A
O366       Ni389   1.876       .  S
O366        C375   1.251       .  A
O367        H390   0.964       .  S
O367       Ni371   1.934       .  S
O367       Ni389   1.925       .  S
O367       Ni383   1.967       .  S
C368        O385   1.285       .  A
C368        O377   1.273       .  A
O369       Ni388   1.978       .  S
O369        C375   1.286       .  A
O370       Ni388   1.919       .  S
O370        C372   1.290       .  A
Ni371       O790   1.906       .  S
Ni371       O376   1.928       .  S
C372        O382   1.289       .  A
O373       Ni805   1.880   1_455  S
O373        C379   1.249       .  A
O374       Ni787   1.906       .  S
O374        C379   1.248       .  A
C375        C405   1.491       .  S
O377       Ni388   1.922       .  S
H380        O381   0.967       .  S
O381       Ni389   1.912       .  S
O381       Ni383   1.909       .  S
O381       Ni388   1.872       .  S
O382       Ni383   1.934       .  S
Ni383       O387   1.978       .  S
Ni383       O385   1.932       .  S
O384       Ni389   1.873       .  S
C386        O387   1.289       .  A
Ni389       O789   1.880       .  S
O391       Ni397   1.918   1_565  S
O391        C412   1.264       .  A
O392       Ni415   1.933       .  S
O392        C401   1.295       .  A
O393        H416   0.966       .  S
O393       Ni831   1.899   1_556  S
O393       Ni617   1.911       .  S
C394        O411   1.284       .  A
O395       Ni414   1.955   1_554  S
O395        C401   1.274       .  A
O396       Ni414   1.926       .  S
O396        C398   1.270       .  A
Ni397       O402   1.903   1_546  S
C398        O408   1.300       .  A
O399       Ni415   1.976       .  S
O399        C821   1.299   1_455  A
O400        C405   1.271       .  A
O402        C404   1.269       .  A
O403       Ni414   1.983       .  S
C404        O410   1.284       .  A
C405        O815   1.299       .  A
O407       Ni415   1.943       .  S
O407       Ni414   1.959   1_554  S
Ni409       O829   1.972   1_455  S
Ni409       O411   1.946       .  S
Ni409       O601   1.911   1_565  S
O410       Ni623   1.945   1_565  S
C412        O413   1.294       .  A
O413       Ni825   1.972       .  S
Ni415       O618   1.945       .  S
Ni415       O809   1.899   1_554  S
O417       Ni423   1.918       .  S
O417        C438   1.264       .  A
O418       Ni441   1.933       .  S
O418        C427   1.295       .  A
O419        H442   0.966       .  S
O419       Ni631   1.918       .  S
O419       Ni643   1.911       .  S
C420        O437   1.284       .  A
C420        O429   1.280       .  A
C420        C594   1.523       .  S
O421       Ni440   1.955       .  S
O421        C427   1.274       .  A
O422       Ni440   1.926       .  S
O422        C424   1.270       .  A
Ni423       O634   1.909   1_545  S
Ni423       O428   1.903       .  S
Ni423       O627   1.918   1_545  S
C424        O434   1.300       .  A
C424        C557   1.475       .  S
O425        C431   1.299       .  A
O426       Ni631   1.909       .  S
O426        C431   1.271       .  A
C427        C516   1.500       .  S
O428        C430   1.269       .  A
O429       Ni648   1.983   1_545  S
C430        O436   1.284       .  A
C430        C464   1.473       .  S
C431        C479   1.491       .  S
H432        O433   0.966       .  S
O433       Ni649   1.943   1_545  S
O433       Ni648   1.959   1_545  S
Ni435       O439   1.972       .  S
Ni435       O627   1.911   1_545  S
C438        O439   1.294       .  A
C438        C531   1.507       .  S
Ni440       O637   1.983       .  S
Ni440       O641   1.959       .  S
Ni441       O641   1.943       .  S
O443       Ni449   1.943       .  S
O443        C464   1.275       .  A
O444       Ni467   1.999       .  S
O444        C453   1.289       .  A
O445        H468   0.966       .  S
O445       Ni449   1.884       .  S
O445       Ni467   1.946       .  S
O445       Ni461   1.953       .  S
C446        C508   1.443   1_545  S
O447       Ni466   1.864       .  S
O447        C453   1.227       .  A
O448       Ni466   1.825       .  S
O448        C450   1.240   1_545  A
Ni449       O452   1.912       .  S
Ni449       O454   1.905       .  S
C450        O460   1.283   1_565  A
C450        C482   1.439       .  S
O451       Ni467   1.931       .  S
O451        C457   1.278       .  A
O452        C457   1.269       .  A
C453        C606   1.475       .  S
O454        C456   1.284       .  A
O455       Ni466   1.910       .  S
C456        O462   1.293       .  A
C456        C476   1.446       .  S
C457        C502   1.488       .  S
H458        O459   0.966       .  S
O459       Ni467   1.898       .  S
O459       Ni461   1.825       .  S
O459       Ni466   1.828       .  S
O460       Ni461   1.968       .  S
Ni461       O465   1.888       .  S
Ni461       O463   1.899       .  S
O462       Ni467   1.948       .  S
C464        O465   1.257       .  A
O469       Ni475   1.887       .  S
O469        C490   1.256       .  A
O470       Ni493   1.876       .  S
O470        C479   1.251       .  A
O471        H494   0.964       .  S
O471       Ni475   1.934       .  S
O471       Ni493   1.925       .  S
O471       Ni487   1.967       .  S
C472        O489   1.285       .  A
C472        O481   1.273       .  A
C472        C498   1.476       .  S
O473       Ni492   1.978       .  S
O473        C479   1.286       .  A
O474       Ni492   1.919       .  S
O474        C476   1.290       .  A
Ni475       O478   1.906       .  S
Ni475       O688   1.928       .  S
C476        O486   1.289       .  A
O477       Ni493   1.880       .  S
O480       Ni683   1.928       .  S
O480        C482   1.285       .  A
O481       Ni492   1.922       .  S
C482        O696   1.257       .  A
C483        C509   1.442       .  S
H484        O485   0.967       .  S
O485       Ni493   1.912       .  S
O485       Ni487   1.909       .  S
O485       Ni492   1.872       .  S
O486       Ni487   1.934       .  S
Ni487       O491   1.978       .  S
Ni487       O489   1.932       .  S
O488       Ni493   1.873       .  S
O488        C690   1.257       .  A
C490        O491   1.289       .  A
C490        C602   1.523       .  S
O495       Ni501   1.856       .  S
O495        C516   1.235       .  A
O496       Ni519   1.872       .  S
O496        C505   1.248       .  A
O497        H520   0.967       .  S
O497       Ni501   1.868       .  S
O497       Ni519   1.845       .  S
O497       Ni513   1.879       .  S
C498        O515   1.278       .  A
C498        O507   1.285       .  A
O499       Ni518   1.996       .  S
O499        C505   1.288       .  A
O500       Ni518   1.958       .  S
O500        C502   1.293       .  A
Ni501       O504   1.908       .  S
Ni501       O506   1.862       .  S
C502        O512   1.295       .  A
O503       Ni519   1.885       .  S
O503        C509   1.275       .  A
O504        C509   1.279       .  A
C505        C620   1.507       .  S
O506        C716   1.256       .  A
O507       Ni518   1.959       .  S
C508        O714   1.256       .  A
C508        O722   1.243       .  A
H510        O511   0.966       .  S
O511       Ni519   1.946       .  S
O511       Ni513   1.917       .  S
O511       Ni518   1.867       .  S
O512       Ni513   1.941       .  S
Ni513       O517   2.009       .  S
Ni513       O515   1.917       .  S
O514       Ni519   1.868       .  S
O514        C716   1.243       .  A
C516        O517   1.291       .  A
O521       Ni527   1.856       .  S
O521        C542   1.235       .  A
O522       Ni545   1.872       .  S
O522        C531   1.248       .  A
O523        H546   0.967       .  S
O523       Ni527   1.868       .  S
O523       Ni545   1.845       .  S
O523       Ni539   1.879       .  S
C524        O541   1.278       .  A
C524        O533   1.285       .  A
C524        C576   1.476       .  S
O525       Ni544   1.996       .  S
O525        C531   1.288       .  A
O526       Ni544   1.958       .  S
O526        C528   1.293       .  A
Ni527       O530   1.908       .  S
Ni527       O532   1.862       .  S
C528        O538   1.295       .  A
C528        C561   1.488       .  S
O529       Ni545   1.885       .  S
O529        C535   1.274       .  A
O530        C535   1.279       .  A
O532        C742   1.256       .  A
O533       Ni544   1.959       .  S
C534        O740   1.256       .  A
C534        O748   1.243       .  A
C534        C550   1.443       .  S
C535        C587   1.442       .  S
H536        O537   0.966       .  S
O537       Ni545   1.946       .  S
O537       Ni539   1.917       .  S
O537       Ni544   1.867       .  S
O538       Ni539   1.941       .  S
Ni539       O543   2.009       .  S
Ni539       O541   1.917       .  S
O540       Ni545   1.868       .  S
O540        C742   1.243       .  A
C542        O543   1.291       .  A
C542        C609   1.500       .  S
O547       Ni553   1.943       .  S
O547        C568   1.275       .  A
O548       Ni571   1.999       .  S
O548        C557   1.289       .  A
O549        H572   0.966       .  S
O549       Ni553   1.884       .  S
O549       Ni571   1.946       .  S
O549       Ni565   1.953       .  S
C550        O567   1.267       .  A
C550        O559   1.284       .  A
O551       Ni570   1.864       .  S
O551        C557   1.227       .  A
O552       Ni570   1.825       .  S
O552        C554   1.240       .  A
Ni553       O556   1.912       .  S
Ni553       O558   1.905       .  S
C554        O564   1.283       .  A
C554        C586   1.439       .  S
O555       Ni571   1.931       .  S
O555        C561   1.278       .  A
O556        C561   1.269       .  A
O558        C560   1.284       .  A
C560        O566   1.293       .  A
C560        C580   1.446       .  S
H562        O563   0.966       .  S
O563       Ni571   1.898       .  S
O563       Ni565   1.825       .  S
O563       Ni570   1.828       .  S
O564       Ni565   1.968       .  S
Ni565       O569   1.888       .  S
O566       Ni571   1.948       .  S
C568        O569   1.257       .  A
C568        C612   1.473       .  S
O573       Ni579   1.887   1_655  S
O573        C594   1.256       .  A
O574       Ni597   1.876       .  S
O574        C583   1.251       .  A
O575        H598   0.964       .  S
O575       Ni579   1.934   1_655  S
O575       Ni597   1.925       .  S
O575       Ni591   1.967       .  S
C576        O593   1.285       .  A
C576        O585   1.273       .  A
O577       Ni596   1.978       .  S
O577        C583   1.286       .  A
O578       Ni596   1.919       .  S
O578        C580   1.290       .  A
Ni579       O584   1.928       .  S
C580        O590   1.289       .  A
O581        C587   1.249       .  A
O582        C587   1.248       .  A
C583        C613   1.491       .  S
O584        C794   1.285   1_455  A
O585       Ni596   1.922       .  S
C586        O792   1.285   1_655  A
C586        O800   1.257       .  A
H588        O589   0.967       .  S
O589       Ni597   1.912       .  S
O589       Ni591   1.909       .  S
O589       Ni596   1.872       .  S
O590       Ni591   1.934       .  S
Ni591       O595   1.978       .  S
Ni591       O593   1.932       .  S
O592       Ni597   1.873       .  S
O592        C794   1.257       .  A
C594        O595   1.289       .  A
O599       Ni605   1.918       .  S
O599        C620   1.264       .  A
O600       Ni623   1.933       .  S
O600        C609   1.295       .  A
O601        H624   0.966       .  S
O601       Ni813   1.918   1_455  S
C602        O619   1.284       .  A
C602        O819   1.280       .  A
O603       Ni622   1.955   1_554  S
O603        C609   1.274       .  A
O604       Ni622   1.926       .  S
O604        C606   1.270       .  A
Ni605       O816   1.909   1_556  S
Ni605       O610   1.903   1_556  S
Ni605       O809   1.918   1_655  S
C606        O616   1.300       .  A
O607       Ni623   1.976       .  S
O608       Ni813   1.909   1_554  S
O608        C613   1.271       .  A
O610        C612   1.269       .  A
O611       Ni622   1.983   1_565  S
O611        C810   1.280       .  A
C612        O618   1.284   1_655  A
H614        O823   0.966       .  S
O615        H822   0.966       .  S
O615       Ni623   1.943   1_565  S
O615       Ni825   1.906   1_554  S
O615       Ni622   1.959   1_564  S
O616       Ni825   1.953   1_545  S
Ni617       O824   1.953       .  S
Ni617       O619   1.946       .  S
Ni617       O823   1.906   1_556  S
C620        O621   1.294       .  A
O625       Ni631   1.918       .  S
O625        C646   1.264       .  A
O626       Ni649   1.933       .  S
O626        C635   1.295       .  A
O627        H650   0.966       .  S
C628        O645   1.284       .  A
C628        O637   1.280       .  A
C628        C802   1.523       .  S
O629       Ni648   1.955       .  S
O629        C635   1.274       .  A
O630       Ni648   1.926       .  S
O630        C632   1.270       .  A
Ni631       O636   1.903       .  S
C632        O642   1.300       .  A
C632        C765   1.475       .  S
O633        C639   1.299       .  A
O634        C639   1.271       .  A
C635        C724   1.500       .  S
O636        C638   1.269       .  A
C638        O644   1.284       .  A
C638        C672   1.473       .  S
C639        C687   1.491       .  S
H640        O641   0.966       .  S
Ni643       O647   1.972       .  S
C646        O647   1.294       .  A
C646        C739   1.507       .  S
O651       Ni657   1.943       .  S
O651        C672   1.275       .  A
O652       Ni675   1.999       .  S
O652        C661   1.289       .  A
O653        H676   0.966       .  S
O653       Ni657   1.884       .  S
O653       Ni675   1.946       .  S
O653       Ni669   1.953       .  S
C654        C716   1.443       .  S
O655       Ni674   1.864       .  S
O655        C661   1.227       .  A
O656       Ni674   1.825       .  S
O656        C658   1.240       .  A
Ni657       O660   1.912       .  S
Ni657       O662   1.905       .  S
C658        O668   1.283       .  A
C658        C690   1.439       .  S
O659       Ni675   1.931       .  S
O659        C665   1.278       .  A
O660        C665   1.269       .  A
C661        C814   1.475       .  S
O662        C664   1.284       .  A
O663       Ni674   1.910       .  S
C664        O670   1.293       .  A
C664        C684   1.446       .  S
C665        C710   1.488       .  S
H666        O667   0.966       .  S
O667       Ni675   1.898       .  S
O667       Ni669   1.825       .  S
O667       Ni674   1.828       .  S
O668       Ni669   1.968       .  S
Ni669       O673   1.888       .  S
Ni669       O671   1.899       .  S
O670       Ni675   1.948       .  S
C672        O673   1.257       .  A
O677       Ni683   1.887       .  S
O677        C698   1.256       .  A
O678       Ni701   1.876       .  S
O678        C687   1.251       .  A
O679        H702   0.964       .  S
O679       Ni683   1.934       .  S
O679       Ni701   1.925       .  S
O679       Ni695   1.967       .  S
C680        O697   1.285       .  A
C680        O689   1.273       .  A
C680        C706   1.476       .  S
O681       Ni700   1.978       .  S
O681        C687   1.286       .  A
O682       Ni700   1.919       .  S
O682        C684   1.290       .  A
Ni683       O686   1.906       .  S
C684        O694   1.289       .  A
O685       Ni701   1.880       .  S
O688        C690   1.285       .  A
O689       Ni700   1.922       .  S
C691        C717   1.442       .  S
H692        O693   0.967       .  S
O693       Ni701   1.912       .  S
O693       Ni695   1.909       .  S
O693       Ni700   1.872       .  S
O694       Ni695   1.934       .  S
Ni695       O699   1.978       .  S
Ni695       O697   1.932       .  S
O696       Ni701   1.873       .  S
C698        O699   1.289       .  A
C698        C810   1.523       .  S
O703       Ni709   1.856       .  S
O703        C724   1.235       .  A
O704       Ni727   1.872       .  S
O704        C713   1.248       .  A
O705        H728   0.967       .  S
O705       Ni709   1.868       .  S
O705       Ni727   1.845       .  S
O705       Ni721   1.879       .  S
C706        O723   1.278       .  A
C706        O715   1.285       .  A
O707       Ni726   1.996       .  S
O707        C713   1.288       .  A
O708       Ni726   1.958       .  S
O708        C710   1.293       .  A
Ni709       O712   1.908       .  S
Ni709       O714   1.862       .  S
C710        O720   1.295       .  A
O711       Ni727   1.885       .  S
O711        C717   1.275       .  A
O712        C717   1.279       .  A
C713        C828   1.507       .  S
O715       Ni726   1.959       .  S
H718        O719   0.966       .  S
O719       Ni727   1.946       .  S
O719       Ni721   1.917       .  S
O719       Ni726   1.867       .  S
O720       Ni721   1.941       .  S
Ni721       O725   2.009       .  S
Ni721       O723   1.917       .  S
O722       Ni727   1.868       .  S
C724        O725   1.291       .  A
O729       Ni735   1.856       .  S
O729        C750   1.235       .  A
O730       Ni753   1.872       .  S
O730        C739   1.248       .  A
O731        H754   0.967       .  S
O731       Ni735   1.868       .  S
O731       Ni753   1.845       .  S
O731       Ni747   1.879       .  S
C732        O749   1.278       .  A
C732        O741   1.285       .  A
C732        C784   1.476       .  S
O733       Ni752   1.996       .  S
O733        C739   1.288       .  A
O734       Ni752   1.958       .  S
O734        C736   1.293       .  A
Ni735       O738   1.908       .  S
Ni735       O740   1.862       .  S
C736        O746   1.295       .  A
C736        C769   1.488       .  S
O737       Ni753   1.885       .  S
O737        C743   1.275       .  A
O738        C743   1.279       .  A
O741       Ni752   1.959       .  S
C742        C758   1.443   1_545  S
C743        C795   1.442       .  S
H744        O745   0.966       .  S
O745       Ni753   1.946       .  S
O745       Ni747   1.917       .  S
O745       Ni752   1.867       .  S
O746       Ni747   1.941       .  S
Ni747       O751   2.009       .  S
Ni747       O749   1.917       .  S
O748       Ni753   1.868       .  S
C750        O751   1.291       .  A
C750        C817   1.500       .  S
O755       Ni761   1.943       .  S
O755        C776   1.275       .  A
O756       Ni779   1.999       .  S
O756        C765   1.289       .  A
O757        H780   0.966       .  S
O757       Ni761   1.884       .  S
O757       Ni779   1.946       .  S
O757       Ni773   1.953       .  S
C758        O775   1.267       .  A
C758        O767   1.284       .  A
O759       Ni778   1.864       .  S
O759        C765   1.227       .  A
O760       Ni778   1.825   1_545  S
O760        C762   1.240       .  A
Ni761       O764   1.912       .  S
Ni761       O766   1.905       .  S
C762        O772   1.283   1_545  A
C762        C794   1.439       .  S
O763       Ni779   1.931       .  S
O763        C769   1.278       .  A
O764        C769   1.269       .  A
O766        C768   1.284       .  A
C768        O774   1.293       .  A
C768        C788   1.446       .  S
H770        O771   0.966       .  S
O771       Ni779   1.898       .  S
O771       Ni773   1.825       .  S
O771       Ni778   1.828       .  S
O772       Ni773   1.968       .  S
Ni773       O777   1.888       .  S
O774       Ni779   1.948       .  S
C776        O777   1.257       .  A
C776        C820   1.473       .  S
O781       Ni787   1.887   1_655  S
O781        C802   1.256       .  A
O782       Ni805   1.876       .  S
O782        C791   1.251       .  A
O783        H806   0.964       .  S
O783       Ni787   1.934   1_655  S
O783       Ni805   1.925       .  S
O783       Ni799   1.967       .  S
C784        O801   1.285       .  A
C784        O793   1.273       .  A
O785       Ni804   1.978       .  S
O785        C791   1.286       .  A
O786       Ni804   1.919       .  S
O786        C788   1.290       .  A
Ni787       O792   1.928       .  S
C788        O798   1.289       .  A
O789        C795   1.249       .  A
O790        C795   1.248       .  A
C791        C821   1.491       .  S
O793       Ni804   1.922       .  S
H796        O797   0.967       .  S
O797       Ni805   1.912       .  S
O797       Ni799   1.909       .  S
O797       Ni804   1.872       .  S
O798       Ni799   1.934       .  S
Ni799       O803   1.978       .  S
Ni799       O801   1.932       .  S
O800       Ni805   1.873       .  S
C802        O803   1.289       .  A
O807       Ni813   1.918   1_565  S
O807        C828   1.264       .  A
O808       Ni831   1.933       .  S
O808        C817   1.295       .  A
O809        H832   0.966       .  S
C810        O827   1.284       .  A
O811       Ni830   1.955   1_554  S
O811        C817   1.274       .  A
O812       Ni830   1.926       .  S
O812        C814   1.270       .  A
Ni813       O818   1.903   1_546  S
C814        O824   1.300       .  A
O815       Ni831   1.976       .  S
O816        C821   1.271       .  A
O818        C820   1.269       .  A
O819       Ni830   1.983       .  S
C820        O826   1.284   1_655  A
O823       Ni831   1.943       .  S
O823       Ni830   1.959   1_554  S
Ni825       O827   1.946       .  S
C828        O829   1.294       .  A
