geometry optimzed in LAMMPS
_audit_creation_date              2020-12-01 
_audit_creation_method            'lammps2cif' 
_symmetry_space_group_name_H-M    'P1' 
_symmetry_Int_Tables_number       1 
_symmetry_cell_setting            triclinic 
loop_ 
_symmetry_equiv_pos_as_xyz 
  x,y,z 
_cell_length_a                    35.59148864 
_cell_length_b                    35.591764239740286 
_cell_length_c                    28.624833676589294 
_cell_angle_alpha                 90.09653325305345 
_cell_angle_beta                  89.86472930736312 
_cell_angle_gamma                 120.04140648546631 
loop_ 
_atom_site_label 
_atom_site_type_symbol 
_atom_site_fract_x 
_atom_site_fract_y 
_atom_site_fract_z 
_atom_site_charge 
C1          C  0.23956630  0.49502002  0.23491757     0.03500
C2          C  0.19997730  0.46899657  0.21234903    -0.12600
C3          C  0.17628390  0.42369339  0.21883435     0.01000
C4          C  0.19242384  0.40426579  0.24986839    -0.11100
C5          C  0.23180700  0.43020412  0.27411575     0.03500
C6          C  0.25511959  0.47538493  0.26565544    -0.10600
H7          H  0.18843373  0.48398210  0.18770334     0.09100
H8          H  0.17447706  0.36947358  0.25517524     0.06700
H9          H  0.28523851  0.49572802  0.28394165     0.06500
C10         C  0.41715633  0.35184672  0.98177135     0.03500
C11         C  0.39738403  0.31755668  0.01360722    -0.12600
C12         C  0.35238296  0.29650490  0.02252096     0.01000
C13         C  0.32668272  0.30980119  0.99773408    -0.11100
C14         C  0.34623263  0.34454131  0.46565764     0.03500
C15         C  0.39148806  0.36551100  0.45861136    -0.10600
H16         H  0.41752167  0.30785572  0.03238716     0.09100
H17         H  0.29194948  0.29349392  0.00345548     0.06700
H18         H  0.40664794  0.39152991  0.43329446     0.06500
C19         C  0.23997481  0.49388714  0.51526397     0.03500
C20         C  0.25415573  0.47398916  0.48311595    -0.12600
C21         C  0.23080935  0.42881384  0.47511956     0.01000
C22         C  0.19201143  0.40304434  0.00077726    -0.11100
C23         C  0.17686475  0.42278251  0.03309653     0.03500
C24         C  0.20117318  0.46814559  0.03949025    -0.10600
H25         H  0.28359494  0.49421952  0.46360612     0.09100
H26         H  0.17383180  0.36823696  0.99562482     0.06700
H27         H  0.19069072  0.48335484  0.06518097     0.06500
C28         C  0.92125158  0.31963473  0.27116669     0.03500
C29         C  0.90768507  0.27978382  0.29316719    -0.12600
C30         C  0.92843809  0.25546446  0.28492354     0.01000
C31         C  0.96325493  0.27137872  0.25261435    -0.11100
C32         C  0.97674757  0.31104292  0.22868069     0.03500
C33         C  0.95574919  0.33494884  0.23910812    -0.10600
H34         H  0.88171827  0.26844262  0.31866057     0.09100
H35         H  0.97937992  0.25294184  0.24594571     0.06700
H36         H  0.96563795  0.36533962  0.22135926     0.06500
C37         C  0.92568575  0.32185848  0.47889078     0.03500
C38         C  0.95938476  0.33654403  0.01155206    -0.12600
C39         C  0.97878350  0.31150581  0.02324021     0.01000
C40         C  0.96454941  0.27140174  0.99991728    -0.11100
C41         C  0.93044085  0.25629596  0.46692657     0.03500
C42         C  0.91129564  0.28171828  0.45739632    -0.10600
H43         H  0.96973793  0.36727047  0.02884043     0.09100
H44         H  0.97947699  0.25204574  0.00758289     0.06700
H45         H  0.88588622  0.27091254  0.43137640     0.06500
C46         C  0.78759655  0.48747213  0.43911403     0.80600
N47         N  0.80994398  0.53163529  0.43965598    -0.77700
C48         C  0.78839444  0.55414495  0.44160922     0.83100
N49         N  0.74435049  0.53225380  0.44302385    -0.77600
C50         C  0.72171705  0.48820866  0.44243154     0.83200
N51         N  0.74346490  0.46589814  0.44063280    -0.79300
C52         C  0.94968157  0.85922767  0.48023074     0.03500
C53         C  0.98897544  0.88577048  0.45730066    -0.12600
C54         C  0.01335774  0.93072800  0.46594391     0.01000
C55         C  0.99773123  0.94938121  0.99891890    -0.11100
C56         C  0.95837031  0.92282872  0.02327996     0.03500
C57         C  0.93483596  0.87800579  0.01309612    -0.10600
H58         H  0.00001565  0.87147383  0.43110179     0.09100
H59         H  0.01608413  0.98393405  0.00572579     0.06700
H60         H  0.90504774  0.85722896  0.03176965     0.06500
O61         O  0.11704956  0.41805788  0.17525631    -0.72500
O62         O  0.02603946  0.36629068  0.07666700    -0.73500
O63         O  0.02495096  0.36627872  0.17566910    -0.62100
O64         O  0.11809245  0.41793093  0.07782183    -0.70500
O65         O  0.12436951  0.35909626  0.07634961    -0.70100
O66         O  0.02926065  0.30642360  0.17756522    -0.61400
O67         O  0.02978167  0.30609554  0.07555574    -0.73900
O68         O  0.12395536  0.35956277  0.17669252    -0.72600
Cu69       Cu  0.07114324  0.39377470  0.12635796     1.04600
Cu70       Cu  0.07677529  0.33037376  0.12659978     1.04300
C71         C  0.13658510  0.39851928  0.18995795     0.93700
C72         C  0.01327035  0.32845863  0.06005376     0.92800
C73         C  0.01212374  0.32849839  0.19247488     0.84900
C74         C  0.13734161  0.39806288  0.06288305     0.91200
C75         C  0.26586476  0.03142426  0.22906344     0.03500
C76         C  0.23164656  0.01727923  0.26103601    -0.12600
C77         C  0.21194376  0.04231028  0.27121053     0.01000
C78         C  0.22655972  0.08206624  0.24721625    -0.11100
C79         C  0.26128885  0.09677537  0.21491351     0.03500
C80         C  0.28075045  0.07130691  0.20681209    -0.10600
H81         H  0.22097472  0.98678155  0.27889834     0.09100
H82         H  0.21137119  0.10140583  0.25375103     0.06700
H83         H  0.30654971  0.08171490  0.18122559     0.06500
C84         C  0.40533869  0.86693155  0.18566637     0.80600
N85         N  0.44950889  0.88755522  0.18550159    -0.77700
C86         C  0.47029298  0.86430094  0.18662357     0.83100
N87         N  0.44667702  0.82032374  0.18818415    -0.77600
C88         C  0.40266587  0.79934794  0.18828702     0.83200
N89         N  0.38202311  0.82277825  0.18715036    -0.79300
C90         C  0.77313699  0.99977838  0.23443222     0.03500
C91         C  0.79303110  0.03417386  0.26624461    -0.12600
C92         C  0.83781375  0.05411228  0.27621048     0.01000
C93         C  0.86305216  0.03962473  0.25209548    -0.11100
C94         C  0.84323580  0.00484179  0.21989714     0.03500
C95         C  0.79817963  0.98473516  0.21243193    -0.10600
H96         H  0.77313664  0.04501288  0.28377585     0.09100
H97         H  0.89768280  0.05527377  0.25814034     0.06700
H98         H  0.78279343  0.95875203  0.18706324     0.06500
C99         C  0.41721745  0.35101237  0.26801196     0.03500
C100        C  0.39149028  0.36539964  0.28967910    -0.12600
C101        C  0.34654185  0.34507472  0.28147905     0.01000
C102        C  0.32737178  0.31053971  0.24906539    -0.11100
C103        C  0.35313619  0.29658703  0.22522115     0.03500
C104        C  0.39790718  0.31669185  0.23587700    -0.10600
H105        H  0.40628779  0.39119009  0.31533648     0.09100
H106        H  0.29281769  0.29478937  0.24247140     0.06700
H107        H  0.41816003  0.30614894  0.21860859     0.06500
C108        C  0.78391225  0.48673685  0.32172989     0.80600
N109        N  0.80728654  0.53092695  0.32111861    -0.77700
C110        C  0.78695934  0.55468498  0.32263398     0.83100
N111        N  0.74292135  0.53391290  0.32447214    -0.77600
C112        C  0.71912418  0.48982658  0.32517577     0.83200
N113        N  0.73978072  0.46634843  0.32371841    -0.79300
C114        C  0.94529586  0.85900586  0.27674473     0.03500
C115        C  0.93028195  0.87705859  0.24321070    -0.12600
C116        C  0.95551202  0.92103836  0.22956532     0.01000
C117        C  0.99589036  0.94753880  0.25184565    -0.11100
C118        C  0.01126573  0.92966494  0.28565189     0.03500
C119        C  0.98585701  0.88538841  0.29712583    -0.10600
H120        H  0.89918524  0.85630184  0.22684521     0.09100
H121        H  0.01534787  0.98152647  0.24270202     0.06700
H122        H  0.99702886  0.87159660  0.32368507     0.06500
C123        C  0.26884545  0.03319344  0.51542456     0.03500
C124        C  0.28278248  0.07276872  0.03811301    -0.12600
C125        C  0.26224316  0.09733302  0.03092073     0.01000
C126        C  0.22744296  0.08213085  0.99887662    -0.11100
C127        C  0.21363792  0.04270497  0.47440016     0.03500
C128        C  0.23430904  0.01838119  0.48381572    -0.10600
H129        H  0.30880221  0.08361017  0.06338456     0.09100
H130        H  0.21149206  0.10082467  0.99296354     0.06700
H131        H  0.22416834  0.98806271  0.46570046     0.06500
C132        C  0.40487136  0.86594547  0.56577831     0.80600
N133        N  0.44898166  0.88646959  0.56724172    -0.77700
C134        C  0.46977768  0.86315383  0.56729408     0.83100
N135        N  0.44614596  0.81907563  0.56532951    -0.77600
C136        C  0.40209188  0.79825474  0.56399062     0.83200
N137        N  0.38163653  0.82185029  0.56420648    -0.79300
C138        C  0.77393073  0.00309775  0.52222629     0.03500
C139        C  0.79389312  0.03739479  0.49028301    -0.12600
C140        C  0.83852606  0.05660792  0.47934326     0.01000
C141        C  0.86368784  0.04191615  0.00290128    -0.11100
C142        C  0.84395743  0.00743883  0.03531516     0.03500
C143        C  0.79903268  0.98794357  0.04380472    -0.10600
H144        H  0.77408604  0.04838229  0.47300092     0.09100
H145        H  0.89815376  0.05692662  0.99595071     0.06700
H146        H  0.78379127  0.96203863  0.06925378     0.06500
O147        O  0.89609699  0.10724712  0.42764362    -0.72500
O148        O  0.93913927  0.20168870  0.32600121    -0.73500
O149        O  0.93991231  0.20189993  0.42610836    -0.62100
O150        O  0.89581442  0.10650748  0.32603973    -0.70500
O151        O  0.83229058  0.10366892  0.32808365    -0.70100
O152        O  0.87527862  0.19684772  0.42489122    -0.61400
O153        O  0.87419912  0.19585171  0.32776415    -0.73900
O154        O  0.83285142  0.10502526  0.42646603    -0.72600
Cu155      Cu  0.92009293  0.15419090  0.37639231     1.04600
Cu156      Cu  0.85167311  0.15000153  0.37679061     1.04300
C157        C  0.85714212  0.09141718  0.44299704     0.93700
C158        C  0.91334852  0.21508758  0.31307078     0.92800
C159        C  0.91452556  0.21570208  0.43923175     0.84900
C160        C  0.85658620  0.08990153  0.31157832     0.91200
O161        O  0.84858438  0.95152070  0.17484935    -0.72500
O162        O  0.90253673  0.91428172  0.07591816    -0.73500
O163        O  0.90126081  0.91251497  0.17487997    -0.62100
O164        O  0.84925622  0.95289215  0.07749852    -0.70500
O165        O  0.90771844  0.01846359  0.07700578    -0.70100
O166        O  0.96079365  0.97706954  0.17711813    -0.61400
O167        O  0.96217461  0.97876145  0.07541678    -0.73900
O168        O  0.90701251  0.01705989  0.17704904    -0.72600
Cu169      Cu  0.87377774  0.93069210  0.12567484     1.04600
Cu170      Cu  0.93679917  0.00018534  0.12663703     1.04300
C171        C  0.86812404  0.99044931  0.19027210     0.93700
C172        C  0.94047619  0.93987135  0.05971660     0.92800
C173        C  0.93867445  0.93796061  0.19214479     0.84900
C174        C  0.86884174  0.99224296  0.06350413     0.91200
O175        O  0.31632914  0.15550311  0.17177086    -0.72500
O176        O  0.35839391  0.24764064  0.07439212    -0.73500
O177        O  0.35893507  0.24761654  0.17274883    -0.62100
O178        O  0.31651306  0.15593858  0.07458005    -0.70500
O179        O  0.25171160  0.15047924  0.07331376    -0.70100
O180        O  0.29557451  0.24517860  0.17432927    -0.61400
O181        O  0.29487943  0.24490386  0.07299626    -0.73900
O182        O  0.25174080  0.15057376  0.17338570    -0.72600
Cu183      Cu  0.33954715  0.20199025  0.12336116     1.04600
Cu184      Cu  0.27113016  0.19789868  0.12353363     1.04300
C185        C  0.27715718  0.13685476  0.18645131     0.93700
C186        C  0.33393936  0.26118347  0.05807125     0.92800
C187        C  0.33464696  0.26134025  0.18926736     0.84900
C188        C  0.27742120  0.13712658  0.05988142     0.90600
O189        O  0.16125435  0.04804442  0.42429479    -0.72500
O190        O  0.06555471  0.99475773  0.32469482    -0.73500
O191        O  0.06642227  0.99519009  0.42456205    -0.62100
O192        O  0.16030823  0.04801344  0.32258406    -0.70500
O193        O  0.16374722  0.98765685  0.32392977    -0.70100
O194        O  0.07299434  0.93649225  0.42281087    -0.61400
O195        O  0.07209470  0.93600960  0.32597532    -0.73900
O196        O  0.16487276  0.98778502  0.42223394    -0.72600
Cu197      Cu  0.11348355  0.02399314  0.37402737     1.04600
Cu198      Cu  0.11884695  0.96040559  0.37370063     1.04300
C199        C  0.17811664  0.02567563  0.43883844     0.93700
C200        C  0.05230924  0.95550735  0.31204469     0.92800
C201        C  0.05350180  0.95613117  0.43758260     0.84900
C202        C  0.17683140  0.02552161  0.30735517     0.91200
O203        O  0.34031052  0.39802170  0.42229114    -0.72500
O204        O  0.28749840  0.43707167  0.32525339    -0.73500
O205        O  0.28669911  0.43609146  0.42347818    -0.62100
O206        O  0.34050468  0.39847691  0.32524067    -0.70500
O207        O  0.28226236  0.33278720  0.32345943    -0.70100
O208        O  0.22703439  0.37166184  0.42475042    -0.61400
O209        O  0.22779702  0.37264407  0.32335616    -0.73900
O210        O  0.28211464  0.33229090  0.42351738    -0.72600
Cu211      Cu  0.31536999  0.41944458  0.37408817     1.04600
Cu212      Cu  0.25242962  0.34990273  0.37374247     1.04300
C213        C  0.32101272  0.35885999  0.43676878     0.93700
C214        C  0.24963083  0.41197636  0.30890438     0.92800
C215        C  0.24870155  0.41082061  0.43971628     0.84900
C216        C  0.32118775  0.35941569  0.31030626     0.91200
C217        C  0.58465979  0.93577680  0.55911834     0.20700
C218        C  0.62305904  0.97536159  0.55092579    -0.39100
C219        C  0.66105647  0.97284305  0.54582643     0.19700
C220        C  0.66087414  0.93401357  0.54971384     0.22400
C221        C  0.62264124  0.89459831  0.55854570    -0.39600
C222        C  0.58459637  0.89697822  0.56267600     0.21200
N223        N  0.54393036  0.92893543  0.56187321    -0.32900
C224        C  0.51771076  0.88539961  0.56662530    -0.10500
C225        C  0.54200501  0.86447040  0.56764965    -0.29300
N226        N  0.70081850  0.93995683  0.54236544    -0.45900
C227        C  0.72684463  0.98285437  0.53319366    -0.05200
C228        C  0.70307700  0.00443734  0.03504410    -0.22500
H229        H  0.62311250  0.00564147  0.04721506     0.19300
H230        H  0.62233015  0.86408315  0.56060100     0.18100
H231        H  0.52998773  0.82995179  0.57013799     0.14400
H232        H  0.71490284  0.03859432  0.02919589     0.14200
H233        H  0.53445072  0.95229242  0.55916558     0.32400
H234        H  0.70961221  0.91602136  0.54270235     0.35100
C235        C  0.29994506  0.95274847  0.53660306     0.20700
C236        C  0.29427914  0.91087684  0.54079302    -0.39100
C237        C  0.33180151  0.90890911  0.55129841     0.19700
C238        C  0.37191922  0.94582474  0.55714231     0.22400
C239        C  0.37741507  0.98767371  0.55388930    -0.39600
C240        C  0.33988491  0.98962580  0.54339611     0.21200
N241        N  0.26970164  0.96336936  0.02543340    -0.32900
C242        C  0.29038020  0.00741453  0.52539870    -0.10500
C243        C  0.33424794  0.02484891  0.53663271    -0.29300
N244        N  0.40288026  0.93527545  0.56410868    -0.45900
C245        C  0.38239267  0.89129878  0.56271501    -0.05200
C246        C  0.33793028  0.87371253  0.55522717    -0.22500
H247        H  0.26312713  0.88195393  0.03528141     0.19300
H248        H  0.40878146  0.01660596  0.55825174     0.18100
H249        H  0.35892158  0.05877265  0.53878347     0.14400
H250        H  0.31363109  0.83979723  0.55146321     0.14200
H251        H  0.23693940  0.94189850  0.01858575     0.32400
H252        H  0.43610590  0.95675514  0.56858760     0.35100
C253        C  0.82733750  0.66928579  0.31408586     0.20700
C254        C  0.82497496  0.70714080  0.30689678    -0.39100
C255        C  0.86493509  0.74593870  0.30286448     0.19700
C256        C  0.90417515  0.74701363  0.30699556     0.22400
C257        C  0.90652812  0.70927690  0.31496233    -0.39600
C258        C  0.86661086  0.67035262  0.31770845     0.21200
N259        N  0.79410987  0.62815848  0.31624661    -0.32900
C260        C  0.81228311  0.60269734  0.32079546    -0.10500
C261        C  0.85751026  0.62793505  0.32190470    -0.29300
N262        N  0.93745394  0.78739495  0.29959448    -0.45900
C263        C  0.91947937  0.81232627  0.28982492    -0.05200
C264        C  0.87418064  0.78753185  0.29184465    -0.22500
H265        H  0.79429281  0.70621784  0.30293136     0.19300
H266        H  0.93722095  0.70997095  0.31714779     0.18100
H267        H  0.88061437  0.61671563  0.32470805     0.14400
H268        H  0.85111523  0.79825856  0.28515945     0.14200
H269        H  0.76117215  0.61800087  0.31379118     0.32400
H270        H  0.97038038  0.79701683  0.29957750     0.35100
C271        C  0.60423387  0.41774744  0.31588866     0.20700
C272        C  0.56610834  0.37828864  0.30653178    -0.39100
C273        C  0.52868583  0.38110430  0.29819432     0.19700
C274        C  0.52897508  0.42007176  0.30050676     0.22400
C275        C  0.56684137  0.45937201  0.31096608    -0.39600
C276        C  0.60448389  0.45671617  0.31803326     0.21200
N277        N  0.64476299  0.42431521  0.32019973    -0.32900
C278        C  0.67114890  0.46787138  0.32443993    -0.10500
C279        C  0.64706366  0.48907501  0.32386215    -0.29300
N280        N  0.48959877  0.41431406  0.29007193    -0.45900
C281        C  0.46394713  0.37140149  0.28048862    -0.05200
C282        C  0.48731699  0.34964816  0.28514696    -0.22500
H283        H  0.56601083  0.34790895  0.30386230     0.19300
H284        H  0.56733576  0.49002095  0.31167051     0.18100
H285        H  0.65930336  0.52368961  0.32517971     0.14400
H286        H  0.47556527  0.31541525  0.27994781     0.14200
H287        H  0.65404598  0.40086374  0.31837058     0.32400
H288        H  0.48089202  0.43827544  0.28897631     0.35100
C289        C  0.66032715  0.93207643  0.20645728     0.20700
C290        C  0.62169279  0.89299893  0.19820777    -0.39100
C291        C  0.58429731  0.89633478  0.19326716     0.19700
C292        C  0.58525897  0.93565759  0.19542455     0.22400
C293        C  0.62412112  0.97493621  0.20285998    -0.39600
C294        C  0.66147800  0.97147920  0.20888071     0.21200
N295        N  0.69977487  0.93718006  0.21470881    -0.32900
C296        C  0.72635960  0.98011318  0.22306579    -0.10500
C297        C  0.70358498  0.00257850  0.21964942    -0.29300
N298        N  0.54486803  0.92964338  0.19204765    -0.45900
C299        C  0.51808883  0.88611543  0.18821360    -0.05200
C300        C  0.54159411  0.86439781  0.18854933    -0.22500
H301        H  0.62058003  0.86205499  0.19728411     0.19300
H302        H  0.62496291  0.00568966  0.20544158     0.18100
H303        H  0.71611961  0.03698523  0.22455836     0.14400
H304        H  0.52897145  0.82972637  0.18695196     0.14200
H305        H  0.70789138  0.91274890  0.21551912     0.32400
H306        H  0.53598342  0.95350714  0.19357703     0.35100
C307        C  0.33293704  0.90903902  0.19634804     0.20700
C308        C  0.29378727  0.90801650  0.20653575    -0.39100
C309        C  0.29615768  0.94857129  0.20903636     0.19700
C310        C  0.33439743  0.98707480  0.20113789     0.22400
C311        C  0.37338990  0.98806822  0.19039963    -0.39600
C312        C  0.37119560  0.94762060  0.18868548     0.21200
N313        N  0.33991673  0.87523911  0.19486867    -0.32900
C314        C  0.38302226  0.89246517  0.18672095    -0.10500
C315        C  0.40353051  0.93751937  0.18237697    -0.29300
N316        N  0.32841994  0.02122352  0.20673597    -0.45900
C317        C  0.28607893  0.00453294  0.21869424    -0.05200
C318        C  0.26492237  0.95919715  0.22041557    -0.22500
H319        H  0.26397945  0.87796493  0.21338319     0.19300
H320        H  0.40349524  0.01821021  0.18504128     0.18100
H321        H  0.43771307  0.95995845  0.17666428     0.14400
H322        H  0.23126167  0.93696211  0.22893764     0.14200
H323        H  0.31696879  0.84255979  0.20042652     0.32400
H324        H  0.35203548  0.05392029  0.20345678     0.35100
C325        C  0.86508189  0.66814332  0.44269862     0.20700
C326        C  0.90593489  0.70588620  0.43927736    -0.39100
C327        C  0.90725992  0.74482688  0.45116676     0.19700
C328        C  0.87073481  0.74604785  0.46541227     0.22400
C329        C  0.82971319  0.70843761  0.46785369    -0.39600
C330        C  0.82835996  0.66953079  0.45587949     0.21200
N331        N  0.85558292  0.62694502  0.43554605    -0.32900
C332        C  0.81243454  0.60194888  0.44394083    -0.10500
C333        C  0.79429650  0.62740070  0.45639843    -0.29300
N334        N  0.88093693  0.78667895  0.97704869    -0.45900
C335        C  0.92440425  0.81180363  0.47018676    -0.05200
C336        C  0.94179433  0.78666597  0.45362861    -0.22500
H337        H  0.93472010  0.70490234  0.42903233     0.19300
H338        H  0.80113220  0.70927787  0.97928958     0.18100
H339        H  0.76091959  0.61642925  0.46587174     0.14400
H340        H  0.97540317  0.79717889  0.44590775     0.14200
H341        H  0.87717232  0.61645691  0.42592167     0.32400
H342        H  0.85943667  0.79642427  0.98917404     0.35100
C343        C  0.89513012  0.40252500  0.45701751     0.20700
C344        C  0.90033959  0.44432297  0.45493726    -0.39100
C345        C  0.86250279  0.44612203  0.44582665     0.19700
C346        C  0.82261590  0.40910601  0.43912654     0.22400
C347        C  0.81769186  0.36744578  0.43967995    -0.39600
C348        C  0.85544854  0.36566124  0.44901589     0.21200
N349        N  0.92530958  0.39187787  0.46833859    -0.32900
C350        C  0.90475054  0.34784581  0.46740770    -0.10500
C351        C  0.86115983  0.33046785  0.45507257    -0.29300
N352        N  0.79111947  0.41921662  0.43485172    -0.45900
C353        C  0.81099190  0.46300490  0.43882966    -0.05200
C354        C  0.85563899  0.48099606  0.44516048    -0.22500
H355        H  0.93121824  0.47321161  0.46169122     0.19300
H356        H  0.78644899  0.33845660  0.93489177     0.18100
H357        H  0.83648898  0.29656799  0.95261366     0.14400
H358        H  0.87952195  0.51481710  0.45059946     0.14200
H359        H  0.95777250  0.41330475  0.47654994     0.32400
H360        H  0.75792591  0.39750772  0.43054752     0.35100
C361        C  0.81728869  0.40670360  0.31422094     0.20700
C362        C  0.81227615  0.36487997  0.31273704    -0.39100
C363        C  0.84979648  0.36289976  0.30150822     0.19700
C364        C  0.88921347  0.39973996  0.29245611     0.22400
C365        C  0.89443583  0.44154775  0.29505278    -0.39600
C366        C  0.85700139  0.44354608  0.30622953     0.21200
N367        N  0.78627748  0.41727743  0.32149272    -0.32900
C368        C  0.80637634  0.46120862  0.31818415    -0.10500
C369        C  0.85061476  0.47868240  0.30910583    -0.29300
N370        N  0.91941599  0.38918895  0.28053413    -0.45900
C371        C  0.89939194  0.34518660  0.28213217    -0.05200
C372        C  0.85585619  0.32773220  0.29544158    -0.22500
H373        H  0.78124640  0.33595895  0.31885683     0.19300
H374        H  0.92520707  0.47040945  0.28777908     0.18100
H375        H  0.87463204  0.51248623  0.30383757     0.14400
H376        H  0.83154977  0.29381196  0.29907348     0.14200
H377        H  0.75329136  0.39583631  0.32765356     0.32400
H378        H  0.95176423  0.41078002  0.27189039     0.35100
C379        C  0.28323088  0.60695172  0.04297306     0.20700
C380        C  0.28204526  0.64426137  0.05672369    -0.39100
C381        C  0.32207698  0.68316451  0.05661091     0.19700
C382        C  0.36045034  0.68470591  0.54432436     0.22400
C383        C  0.36164594  0.64738277  0.53062385    -0.39600
C384        C  0.32150955  0.60855962  0.53022862     0.21200
N385        N  0.24950957  0.56621599  0.03948877    -0.32900
C386        C  0.26625012  0.54148273  0.52413136    -0.10500
C387        C  0.31120523  0.56699407  0.51795420    -0.29300
N388        N  0.39395056  0.72568798  0.54637637    -0.45900
C389        C  0.37671232  0.75052194  0.55963730    -0.05200
C390        C  0.33196270  0.72510912  0.06637815    -0.22500
H391        H  0.25207641  0.64316701  0.06628292     0.19300
H392        H  0.39152523  0.64857181  0.52043646     0.18100
H393        H  0.33354650  0.55658951  0.50645964     0.14400
H394        H  0.30963240  0.73595042  0.07658110     0.14200
H395        H  0.21709027  0.55615798  0.04668697     0.32400
H396        H  0.42624202  0.73617800  0.53836970     0.35100
C397        C  0.52924349  0.38267846  0.46561601     0.20700
C398        C  0.56568430  0.37715630  0.46493686    -0.39100
C399        C  0.60552785  0.41453852  0.45501168     0.19700
C400        C  0.60870619  0.45431184  0.44660008     0.22400
C401        C  0.57219990  0.45961410  0.44632598    -0.39600
C402        C  0.53240607  0.42226102  0.45616027     0.21200
N403        N  0.48802754  0.35266830  0.47578557    -0.32900
C404        C  0.46458938  0.37316150  0.47259984    -0.10500
C405        C  0.49129244  0.41665066  0.46014276    -0.29300
N406        N  0.65031238  0.48525843  0.44055175    -0.45900
C407        C  0.67393593  0.46515884  0.44493161    -0.05200
C408        C  0.64710217  0.42088653  0.45358240    -0.22500
H409        H  0.56330813  0.34625446  0.47251304     0.19300
H410        H  0.57472308  0.49074631  0.43982751     0.18100
H411        H  0.48212167  0.44118981  0.95576701     0.14400
H412        H  0.65681280  0.39691340  0.45941372     0.14200
H413        H  0.47666880  0.32021105  0.48433940     0.32400
H414        H  0.66198327  0.51822503  0.43431104     0.35100
C415        C  0.32443058  0.68589569  0.19546073     0.20700
C416        C  0.28304026  0.64864996  0.19596993    -0.39100
C417        C  0.28170727  0.60967650  0.20762612     0.19700
C418        C  0.31872395  0.60789788  0.21796354     0.22400
C419        C  0.36020448  0.64501540  0.21666187    -0.39600
C420        C  0.36154312  0.68397858  0.20499239     0.21200
N421        N  0.33422523  0.72709959  0.18761898    -0.32900
C422        C  0.37792966  0.75159360  0.19206377    -0.10500
C423        C  0.39610548  0.72576541  0.20251681    -0.29300
N424        N  0.30861592  0.56719170  0.22918024    -0.45900
C425        C  0.26473716  0.54260843  0.22581690    -0.05200
C426        C  0.24694272  0.56817877  0.21229721    -0.22500
H427        H  0.25394000  0.65002204  0.18860196     0.19300
H428        H  0.38923349  0.64378180  0.22489691     0.18100
H429        H  0.42993909  0.73633335  0.20885431     0.14400
H430        H  0.21304377  0.55802110  0.20730315     0.14200
H431        H  0.31248190  0.73793991  0.18029876     0.32400
H432        H  0.33041661  0.55688895  0.23825418     0.35100
C433        C  0.23956249  0.49501853  0.73492465     0.03500
C434        C  0.19997431  0.46899561  0.71235443    -0.12600
C435        C  0.17628111  0.42369220  0.71883789     0.01000
C436        C  0.19242042  0.40426379  0.74987173    -0.11100
C437        C  0.23180287  0.43020154  0.77412048     0.03500
C438        C  0.25511493  0.47538267  0.76566247    -0.10600
H439        H  0.18843137  0.48398174  0.68770875     0.09100
H440        H  0.17447396  0.36947137  0.75517694     0.06700
H441        H  0.28523311  0.49572534  0.78395006     0.06500
C442        C  0.41715491  0.35184665  0.48176840     0.03500
C443        C  0.39738221  0.31755603  0.51360351    -0.12600
C444        C  0.35238151  0.29650605  0.52251898     0.01000
C445        C  0.32668197  0.30980460  0.49773455    -0.11100
C446        C  0.34623301  0.34453746  0.96565646     0.03500
C447        C  0.39148873  0.36550867  0.95861172    -0.10600
H448        H  0.41751930  0.30785324  0.53238160     0.09100
H449        H  0.29194894  0.29349856  0.50345706     0.06700
H450        H  0.40664848  0.39152720  0.93329436     0.06500
C451        C  0.23997253  0.49388435  0.01525831     0.03500
C452        C  0.25415398  0.47398516  0.98311266    -0.12600
C453        C  0.23080849  0.42880941  0.97511943     0.01000
C454        C  0.19201189  0.40304799  0.50077666    -0.11100
C455        C  0.17686559  0.42278489  0.53309810     0.03500
C456        C  0.20117497  0.46814753  0.53949494    -0.10600
H457        H  0.28359278  0.49421501  0.96360197     0.09100
H458        H  0.17383163  0.36824091  0.49562199     0.06700
H459        H  0.19069274  0.48335560  0.56518736     0.06500
C460        C  0.92125563  0.31963541  0.77117171     0.03500
C461        C  0.90768885  0.27978430  0.79317162    -0.12600
C462        C  0.92844005  0.25546372  0.78492547     0.01000
C463        C  0.96325569  0.27137718  0.75261484    -0.11100
C464        C  0.97674867  0.31104182  0.72868202     0.03500
C465        C  0.95575191  0.33494883  0.73911168    -0.10600
H466        H  0.88172311  0.26844372  0.81866626     0.09100
H467        H  0.97937940  0.25293936  0.74594441     0.06700
H468        H  0.96564077  0.36533990  0.72136343     0.06500
C469        C  0.92568836  0.32186103  0.97888829     0.03500
C470        C  0.95938262  0.33654187  0.51155397    -0.12600
C471        C  0.97878247  0.31150440  0.52324089     0.01000
C472        C  0.96454880  0.27140062  0.49991732    -0.11100
C473        C  0.93044207  0.25629742  0.96692593     0.03500
C474        C  0.91129782  0.28172043  0.95739436    -0.10600
H475        H  0.96973543  0.36726811  0.52884264     0.09100
H476        H  0.97947719  0.25204518  0.50758190     0.06700
H477        H  0.88588869  0.27091473  0.93137412     0.06500
C478        C  0.78759790  0.48747474  0.93911595     0.80600
N479        N  0.80994509  0.53163791  0.93965871    -0.77700
C480        C  0.78839521  0.55414727  0.94161089     0.83100
N481        N  0.74435128  0.53225599  0.94302352    -0.77600
C482        C  0.72171806  0.48821094  0.94243011     0.83200
N483        N  0.74346615  0.46590058  0.94063260    -0.79300
C484        C  0.94968027  0.85923022  0.98022378     0.03500
C485        C  0.98897474  0.88577299  0.95729476    -0.12600
C486        C  0.01335891  0.93072971  0.96594165     0.01000
C487        C  0.99772898  0.94938003  0.49891944    -0.11100
C488        C  0.95836879  0.92282752  0.52328191     0.03500
C489        C  0.93483612  0.87800385  0.51310108    -0.10600
H490        H  0.00001434  0.87147710  0.93109432     0.09100
H491        H  0.01608045  0.98393335  0.50572389     0.06700
H492        H  0.90504829  0.85722693  0.53177526     0.06500
O493        O  0.11704824  0.41805739  0.67525737    -0.72500
O494        O  0.02603875  0.36628975  0.57666719    -0.73500
O495        O  0.02495026  0.36627718  0.67566930    -0.62100
O496        O  0.11809203  0.41793171  0.57782259    -0.70500
O497        O  0.12436999  0.35909756  0.57634980    -0.70100
O498        O  0.02926067  0.30642244  0.67756489    -0.61400
O499        O  0.02978191  0.30609514  0.57555543    -0.73900
O500        O  0.12395468  0.35956265  0.67669315    -0.72600
Cu501      Cu  0.07114240  0.39377414  0.62635843     1.04600
Cu502      Cu  0.07677538  0.33037373  0.62659968     1.04300
C503        C  0.13658357  0.39851873  0.68995950     0.93700
C504        C  0.01326993  0.32845776  0.56005386     0.92800
C505        C  0.01212373  0.32849701  0.69247510     0.84900
C506        C  0.13734184  0.39806430  0.56288374     0.91200
C507        C  0.26586202  0.03142454  0.72905913     0.03500
C508        C  0.23164363  0.01727933  0.76103129    -0.12600
C509        C  0.21194133  0.04231063  0.77120637     0.01000
C510        C  0.22655748  0.08206676  0.74721243    -0.11100
C511        C  0.26128674  0.09677596  0.71490986     0.03500
C512        C  0.28074829  0.07130747  0.70680836    -0.10600
H513        H  0.22097162  0.98678146  0.77889331     0.09100
H514        H  0.21136917  0.10140651  0.75374752     0.06700
H515        H  0.30654799  0.08171563  0.68122237     0.06500
C516        C  0.40533785  0.86693178  0.68568302     0.80600
N517        N  0.44950807  0.88755505  0.68551788    -0.77700
C518        C  0.47029158  0.86430024  0.68664127     0.83100
N519        N  0.44667519  0.82032320  0.68820377    -0.77600
C520        C  0.40266419  0.79934788  0.68830692     0.83200
N521        N  0.38202183  0.82277853  0.68716861    -0.79300
C522        C  0.77313511  0.99977183  0.73444393     0.03500
C523        C  0.79303025  0.03416871  0.76625425    -0.12600
C524        C  0.83781362  0.05410918  0.77621635     0.01000
C525        C  0.86305160  0.03962215  0.75209965    -0.11100
C526        C  0.84323412  0.00483781  0.71990309     0.03500
C527        C  0.79817717  0.98472882  0.71244207    -0.10600
H528        H  0.77313600  0.04500746  0.78378650     0.09100
H529        H  0.89768279  0.05527296  0.75814148     0.06700
H530        H  0.78278973  0.95874443  0.68707493     0.06500
C531        C  0.41721556  0.35101185  0.76800794     0.03500
C532        C  0.39148853  0.36539914  0.78967540    -0.12600
C533        C  0.34653997  0.34507406  0.78147571     0.01000
C534        C  0.32736968  0.31053941  0.74906190    -0.11100
C535        C  0.35313396  0.29658696  0.72521736     0.03500
C536        C  0.39790496  0.31669156  0.73587285    -0.10600
H537        H  0.40628612  0.39118940  0.81533297     0.09100
H538        H  0.29281552  0.29478902  0.74246822     0.06700
H539        H  0.41815759  0.30614859  0.71860411     0.06500
C540        C  0.78391248  0.48673378  0.82172945     0.80600
N541        N  0.80728602  0.53092387  0.82111742    -0.77700
C542        C  0.78695798  0.55468116  0.82262953     0.83100
N543        N  0.74291992  0.53390831  0.82446549    -0.77600
C544        C  0.71912336  0.48982196  0.82516989     0.83200
N545        N  0.73978072  0.46634447  0.82371548    -0.79300
C546        C  0.94529363  0.85900378  0.77674488     0.03500
C547        C  0.93028007  0.87705675  0.74321070    -0.12600
C548        C  0.95550991  0.92103658  0.72956580     0.01000
C549        C  0.99588807  0.94753703  0.75184647    -0.11100
C550        C  0.01126349  0.92966327  0.78565283     0.03500
C551        C  0.98585466  0.88538656  0.79712668    -0.10600
H552        H  0.89918370  0.85630011  0.72684456     0.09100
H553        H  0.01534551  0.98152472  0.74270290     0.06700
H554        H  0.99702652  0.87159487  0.82368599     0.06500
C555        C  0.26884733  0.03319469  0.01542123     0.03500
C556        C  0.28278159  0.07276883  0.53811368    -0.12600
C557        C  0.26224200  0.09733270  0.53092018     0.01000
C558        C  0.22744116  0.08212915  0.49887709    -0.11100
C559        C  0.21364037  0.04270777  0.97439737     0.03500
C560        C  0.23431190  0.01838408  0.98381128    -0.10600
H561        H  0.30880212  0.08361155  0.56338441     0.09100
H562        H  0.21149032  0.10082287  0.49296287     0.06700
H563        H  0.22417207  0.98806673  0.96569398     0.06500
C564        C  0.40487221  0.86594389  0.06576306     0.80600
N565        N  0.44898243  0.88646724  0.06722767    -0.77700
C566        C  0.46977766  0.86315069  0.06728077     0.83100
N567        N  0.44614528  0.81907256  0.06531590    -0.77600
C568        C  0.40209124  0.79825256  0.06397577     0.83200
N569        N  0.38163673  0.82184883  0.06419082    -0.79300
C570        C  0.77393178  0.00309497  0.02222541     0.03500
C571        C  0.79389379  0.03739273  0.99028281    -0.12600
C572        C  0.83852689  0.05660701  0.97934348     0.01000
C573        C  0.86368658  0.04191696  0.50290207    -0.11100
C574        C  0.84395577  0.00744031  0.53531695     0.03500
C575        C  0.79903109  0.98794605  0.54380643    -0.10600
H576        H  0.77408649  0.04838015  0.97300108     0.09100
H577        H  0.89815240  0.05692664  0.49595130     0.06700
H578        H  0.78378920  0.96204146  0.56925582     0.06500
O579        O  0.89609791  0.10724730  0.92764539    -0.72500
O580        O  0.93914056  0.20168769  0.82600275    -0.73500
O581        O  0.93991304  0.20190027  0.92610956    -0.62100
O582        O  0.89581555  0.10650662  0.82604251    -0.70500
O583        O  0.83229170  0.10366808  0.82808656    -0.70100
O584        O  0.87527952  0.19684846  0.92489174    -0.61400
O585        O  0.87420038  0.19585075  0.82776490    -0.73900
O586        O  0.83285240  0.10502570  0.92646820    -0.72600
Cu587      Cu  0.92009396  0.15419062  0.87639420     1.04600
Cu588      Cu  0.85167416  0.15000142  0.87679217     1.04300
C589        C  0.85714298  0.09141721  0.94299858     0.93700
C590        C  0.91334993  0.21508652  0.81307194     0.92800
C591        C  0.91452647  0.21570293  0.93923215     0.84900
C592        C  0.85658704  0.08990011  0.81158194     0.91200
O593        O  0.84858217  0.95151839  0.67485168    -0.72500
O594        O  0.90253403  0.91428135  0.57591804    -0.73500
O595        O  0.90125880  0.91251323  0.67488000    -0.62100
O596        O  0.84925347  0.95289260  0.57750047    -0.70500
O597        O  0.90771632  0.01846354  0.57700791    -0.70100
O598        O  0.96079123  0.97706807  0.67711936    -0.61400
O599        O  0.96217240  0.97876069  0.57541802    -0.73900
O600        O  0.90700990  0.01705783  0.67705163    -0.72600
Cu601      Cu  0.87377527  0.93069112  0.62567576     1.04600
Cu602      Cu  0.93679675  0.00018426  0.62663877     1.04300
C603        C  0.86812183  0.99044663  0.69027543     0.93700
C604        C  0.94047395  0.93987070  0.55971737     0.92800
C605        C  0.93867225  0.93795891  0.69214534     0.84900
C606        C  0.86883945  0.99224354  0.56350623     0.91200
O607        O  0.31632726  0.15550385  0.67176778    -0.72500
O608        O  0.35839195  0.24764108  0.57438923    -0.73500
O609        O  0.35893274  0.24761677  0.67274531    -0.62100
O610        O  0.31651186  0.15593945  0.57457744    -0.70500
O611        O  0.25171021  0.15047973  0.57331071    -0.70100
O612        O  0.29557209  0.24517873  0.67432589    -0.61400
O613        O  0.29487755  0.24490448  0.57299336    -0.73900
O614        O  0.25173879  0.15057428  0.67338220    -0.72600
Cu615      Cu  0.33954530  0.20199085  0.62335812     1.04600
Cu616      Cu  0.27112817  0.19789911  0.62353034     1.04300
C617        C  0.27715522  0.13685540  0.68644795     0.93700
C618        C  0.33393755  0.26118417  0.55806861     0.92800
C619        C  0.33464458  0.26134036  0.68926380     0.84900
C620        C  0.27741998  0.13712703  0.55987910     0.90600
O621        O  0.16125590  0.04804697  0.92429231    -0.72500
O622        O  0.06555351  0.99475700  0.82469420    -0.73500
O623        O  0.06642376  0.99519171  0.92456103    -0.62100
O624        O  0.16030705  0.04801425  0.82258125    -0.70500
O625        O  0.16374617  0.98765772  0.82392681    -0.70100
O626        O  0.07299634  0.93649408  0.92281070    -0.61400
O627        O  0.07209352  0.93600892  0.82597555    -0.73900
O628        O  0.16487476  0.98778787  0.92223115    -0.72600
Cu629      Cu  0.11348373  0.02399420  0.87402562     1.04600
Cu630      Cu  0.11884752  0.96040688  0.87369923     1.04300
C631        C  0.17811872  0.02567853  0.93883566     0.93700
C632        C  0.05230755  0.95550621  0.81204505     0.92800
C633        C  0.05350358  0.95613295  0.93758180     0.84900
C634        C  0.17682982  0.02552227  0.80735183     0.91200
O635        O  0.34031038  0.39801709  0.92228886    -0.72500
O636        O  0.28749517  0.43706819  0.82525596    -0.73500
O637        O  0.28669852  0.43608604  0.92347992    -0.62100
O638        O  0.34050235  0.39847492  0.82523859    -0.70500
O639        O  0.28226087  0.33278454  0.82345791    -0.70100
O640        O  0.22703337  0.37165671  0.92475151    -0.61400
O641        O  0.22779434  0.37264020  0.82335778    -0.73900
O642        O  0.28211444  0.33228640  0.92351615    -0.72600
Cu643      Cu  0.31536839  0.41944062  0.87408818     1.04600
Cu644      Cu  0.25242827  0.34989854  0.87374245     1.04300
C645        C  0.32101279  0.35885548  0.93676685     0.93700
C646        C  0.24962742  0.41197298  0.80890733     0.92800
C647        C  0.24870080  0.41081539  0.93971753     0.84900
C648        C  0.32118576  0.35941389  0.81030391     0.91200
C649        C  0.58466002  0.93577289  0.05911045     0.20700
C650        C  0.62305933  0.97535757  0.05091850    -0.39100
C651        C  0.66105716  0.97283937  0.04582322     0.19700
C652        C  0.66087535  0.93401040  0.04971420     0.22400
C653        C  0.62264226  0.89459511  0.05854589    -0.39600
C654        C  0.58459674  0.89697456  0.06267149     0.21200
N655        N  0.54393051  0.92893140  0.06186147    -0.32900
C656        C  0.51771072  0.88539584  0.06661434    -0.10500
C657        C  0.54200500  0.86446665  0.06764296    -0.29300
N658        N  0.70082014  0.93995402  0.04236777    -0.45900
C659        C  0.72684576  0.98285120  0.03319344    -0.05200
C660        C  0.70307648  0.00444111  0.53504744    -0.22500
H661        H  0.62311249  0.00564586  0.54722548     0.19300
H662        H  0.62233150  0.86408021  0.06060382     0.18100
H663        H  0.52998763  0.82994812  0.07013324     0.14400
H664        H  0.71490301  0.03859861  0.52920210     0.14200
H665        H  0.53445082  0.95228866  0.05915090     0.32400
H666        H  0.70961428  0.91601882  0.04270686     0.35100
C667        C  0.29994730  0.95274870  0.03659117     0.20700
C668        C  0.29428176  0.91087687  0.04077567    -0.39100
C669        C  0.33180355  0.90890857  0.05128229     0.19700
C670        C  0.37192052  0.94582382  0.05713215     0.22400
C671        C  0.37741593  0.98767293  0.05388450    -0.39600
C672        C  0.33988623  0.98962561  0.04339028     0.21200
N673        N  0.26969902  0.96336853  0.52544493    -0.32900
C674        C  0.29038209  0.00741536  0.02539345    -0.10500
C675        C  0.33424899  0.02484908  0.03663123    -0.29300
N676        N  0.40288119  0.93527412  0.06409899    -0.45900
C677        C  0.38239406  0.89129766  0.06269989    -0.05200
C678        C  0.33793236  0.87371186  0.05520779    -0.22500
H679        H  0.26312380  0.88195354  0.53530333     0.19300
H680        H  0.40878166  0.01660496  0.05825186     0.18100
H681        H  0.35892206  0.05877269  0.03878709     0.14400
H682        H  0.31363371  0.83979689  0.05143938     0.14200
H683        H  0.23693592  0.94189727  0.51860108     0.32400
H684        H  0.43610670  0.95675373  0.06858231     0.35100
C685        C  0.82733455  0.66928136  0.81407537     0.20700
C686        C  0.82497172  0.70713582  0.80688292    -0.39100
C687        C  0.86493182  0.74593457  0.80285598     0.19700
C688        C  0.90417191  0.74701072  0.80699441     0.22400
C689        C  0.90652502  0.70927437  0.81496370    -0.39600
C690        C  0.86660798  0.67034935  0.81770515     0.21200
N691        N  0.79410722  0.62815366  0.81623435    -0.32900
C692        C  0.81228102  0.60269350  0.82078953    -0.10500
C693        C  0.85750797  0.62793213  0.82190414    -0.29300
N694        N  0.93745099  0.78739289  0.79959774    -0.45900
C695        C  0.91947668  0.81232365  0.78982373    -0.05200
C696        C  0.87417768  0.78752780  0.79183615    -0.22500
H697        H  0.79428965  0.70621201  0.80291203     0.19300
H698        H  0.93721801  0.70996939  0.81715525     0.18100
H699        H  0.88061240  0.61671359  0.82471349     0.14400
H700        H  0.85111232  0.79825360  0.78514616     0.14200
H701        H  0.76117028  0.61799546  0.81377427     0.32400
H702        H  0.97037749  0.79701557  0.79958634     0.35100
C703        C  0.60423289  0.41774324  0.81587819     0.20700
C704        C  0.56610705  0.37828514  0.80651961    -0.39100
C705        C  0.52868438  0.38110151  0.79818572     0.19700
C706        C  0.52897383  0.42006889  0.80050257     0.22400
C707        C  0.56684047  0.45936839  0.81096319    -0.39600
C708        C  0.60448303  0.45671187  0.81802713     0.21200
N709        N  0.64476199  0.42431059  0.82018822    -0.32900
C710        C  0.67114797  0.46786641  0.82443224    -0.10500
C711        C  0.64706276  0.48907012  0.82385752    -0.29300
N712        N  0.48959727  0.41431216  0.79007035    -0.45900
C713        C  0.46394530  0.37140007  0.78048430    -0.05200
C714        C  0.48731515  0.34964634  0.78513835    -0.22500
H715        H  0.56600928  0.34790549  0.80384682     0.19300
H716        H  0.56733501  0.49001734  0.81167130     0.18100
H717        H  0.65930247  0.52368461  0.82517888     0.14400
H718        H  0.47556325  0.31541374  0.77993616     0.14200
H719        H  0.65404501  0.40085899  0.81835645     0.32400
H720        H  0.48089099  0.43827310  0.78897799     0.35100
C721        C  0.66032409  0.93207010  0.70647597     0.20700
C722        C  0.62168863  0.89299274  0.69823034    -0.39100
C723        C  0.58429446  0.89633032  0.69328613     0.19700
C724        C  0.58525817  0.93565437  0.69543704     0.22400
C725        C  0.62412146  0.97493276  0.70286850    -0.39600
C726        C  0.66147708  0.97147419  0.70889258     0.21200
N727        N  0.69977125  0.93717269  0.71472883    -0.32900
C728        C  0.72635755  0.98010662  0.72307968    -0.10500
C729        C  0.70358476  0.00257335  0.71965828    -0.29300
N730        N  0.54486791  0.92964172  0.69205870    -0.45900
C731        C  0.51808726  0.88611360  0.68823017    -0.05200
C732        C  0.54159082  0.86439430  0.68857064    -0.22500
H733        H  0.62057413  0.86204789  0.69731198     0.19300
H734        H  0.62496503  0.00568736  0.70544472     0.18100
H735        H  0.71612121  0.03698104  0.72456155     0.14400
H736        H  0.52896670  0.82972242  0.68697852     0.14200
H737        H  0.70788644  0.91274104  0.71554348     0.32400
H738        H  0.53598469  0.95350671  0.69358374     0.35100
C739        C  0.33293582  0.90903965  0.69635431     0.20700
C740        C  0.29378510  0.90801708  0.70653642    -0.39100
C741        C  0.29615544  0.94857186  0.70903537     0.19700
C742        C  0.33439606  0.98707547  0.70114046     0.22400
C743        C  0.37338951  0.98806897  0.69040760    -0.39600
C744        C  0.37119520  0.94762131  0.68869513     0.21200
N745        N  0.33991553  0.87523976  0.69487753    -0.32900
C746        C  0.38302173  0.89246573  0.68673470    -0.10500
C747        C  0.40353057  0.93752003  0.68239140    -0.29300
N748        N  0.32841840  0.02122426  0.70673699    -0.45900
C749        C  0.28607637  0.00453341  0.71869088    -0.05200
C750        C  0.26491933  0.95919760  0.72041064    -0.22500
H751        H  0.26397655  0.87796546  0.71338126     0.19300
H752        H  0.40349546  0.01821099  0.68505223     0.18100
H753        H  0.43771366  0.95995910  0.67668203     0.14400
H754        H  0.23125794  0.93696254  0.72892989     0.14200
H755        H  0.31696661  0.84255991  0.70043364     0.32400
H756        H  0.35203413  0.05392077  0.70346032     0.35100
C757        C  0.86508051  0.66814585  0.94269577     0.20700
C758        C  0.90593241  0.70588927  0.93926924    -0.39100
C759        C  0.90725726  0.74482984  0.95115831     0.19700
C760        C  0.87073306  0.74605027  0.96540864     0.22400
C761        C  0.82971236  0.70843935  0.96785551    -0.39600
C762        C  0.82835928  0.66953260  0.95588143     0.21200
N763        N  0.85558217  0.62694771  0.93554342    -0.32900
C764        C  0.81243467  0.60195101  0.94394282    -0.10500
C765        C  0.79429672  0.62740214  0.95640373    -0.29300
N766        N  0.88093839  0.78667649  0.47705250    -0.45900
C767        C  0.92440208  0.81180656  0.97017839    -0.05200
C768        C  0.94179127  0.78666921  0.95361681    -0.22500
H769        H  0.93471705  0.70490594  0.92902052     0.19300
H770        H  0.80113229  0.70927659  0.47928386     0.18100
H771        H  0.76092046  0.61643012  0.96588061     0.14400
H772        H  0.97539956  0.79718225  0.94589266     0.14200
H773        H  0.87717081  0.61646034  0.92591572     0.32400
H774        H  0.85943766  0.79642228  0.48917394     0.35100
C775        C  0.89513263  0.40252804  0.95701722     0.20700
C776        C  0.90034172  0.44432598  0.95493886    -0.39100
C777        C  0.86250473  0.44612502  0.94582916     0.19700
C778        C  0.82261801  0.40910902  0.93912818     0.22400
C779        C  0.81769435  0.36744891  0.93967987    -0.39600
C780        C  0.85545121  0.36566438  0.94901474     0.21200
N781        N  0.92531223  0.39188078  0.96833744    -0.32900
C782        C  0.90475339  0.34784869  0.96740513    -0.10500
C783        C  0.86116275  0.33047095  0.95506978    -0.29300
N784        N  0.79112148  0.41921951  0.93485362    -0.45900
C785        C  0.81099352  0.46300767  0.93883243    -0.05200
C786        C  0.85564060  0.48099891  0.94516392    -0.22500
H787        H  0.93122025  0.47321456  0.96169337     0.19300
H788        H  0.78644637  0.33845346  0.43489257     0.18100
H789        H  0.83648598  0.29656486  0.45261723     0.14400
H790        H  0.87952340  0.51481994  0.95060336     0.14200
H791        H  0.95777484  0.41330744  0.97654946     0.32400
H792        H  0.75792778  0.39751034  0.93054850     0.35100
C793        C  0.81729194  0.40670270  0.81422559     0.20700
C794        C  0.81228015  0.36487946  0.81274228    -0.39100
C795        C  0.84980096  0.36289999  0.80151446     0.19700
C796        C  0.88921784  0.39974048  0.79246266     0.22400
C797        C  0.89443952  0.44154803  0.79505895    -0.39600
C798        C  0.85700445  0.44354563  0.80623473     0.21200
N799        N  0.78627988  0.41727558  0.82149565    -0.32900
C800        C  0.80637787  0.46120663  0.81818645    -0.10500
C801        C  0.85061670  0.47868132  0.80910964    -0.29300
N802        N  0.91942057  0.38918978  0.78054065    -0.45900
C803        C  0.89939661  0.34518745  0.78213838    -0.05200
C804        C  0.85586090  0.32773272  0.79544770    -0.22500
H805        H  0.78125048  0.33595811  0.81886137     0.19300
H806        H  0.92521057  0.47041002  0.78778527     0.18100
H807        H  0.87463345  0.51248527  0.80384101     0.14400
H808        H  0.83155449  0.29381240  0.79907890     0.14200
H809        H  0.75329367  0.39583388  0.82765547     0.32400
H810        H  0.95176901  0.41078114  0.77189662     0.35100
C811        C  0.28323400  0.60695331  0.54298665     0.20700
C812        C  0.28204822  0.64426229  0.55673984    -0.39100
C813        C  0.32207953  0.68316584  0.55662657     0.19700
C814        C  0.36044786  0.68470354  0.04431121     0.22400
C815        C  0.36164321  0.64737986  0.03061293    -0.39600
C816        C  0.32150659  0.60855717  0.03021751     0.21200
N817        N  0.24951274  0.56621766  0.53950109    -0.32900
C818        C  0.26624726  0.54148033  0.02412251    -0.10500
C819        C  0.31120244  0.56699115  0.01794607    -0.29300
N820        N  0.39394855  0.72568515  0.04636367    -0.45900
C821        C  0.37671080  0.75051995  0.05962246    -0.05200
C822        C  0.33196460  0.72511012  0.56639486    -0.22500
H823        H  0.25207941  0.64316721  0.56630079     0.19300
H824        H  0.39152264  0.64856809  0.02042779     0.18100
H825        H  0.33354392  0.55658586  0.00645440     0.14400
H826        H  0.30963404  0.73595058  0.57659948     0.14200
H827        H  0.21709365  0.55615939  0.54670034     0.32400
H828        H  0.42624068  0.73617448  0.03835873     0.35100
C829        C  0.52924547  0.38268097  0.96561971     0.20700
C830        C  0.56568640  0.37715913  0.96493939    -0.39100
C831        C  0.60552933  0.41454106  0.95501187     0.19700
C832        C  0.60870720  0.45431406  0.94659942     0.22400
C833        C  0.57220071  0.45961610  0.94632677    -0.39600
C834        C  0.53240731  0.42226310  0.95616321     0.21200
N835        N  0.48802992  0.35267058  0.97579010    -0.32900
C836        C  0.46459104  0.37316291  0.97260398    -0.10500
C837        C  0.49129339  0.41665206  0.96014618    -0.29300
N838        N  0.65031321  0.48526050  0.94054952    -0.45900
C839        C  0.67393696  0.46516112  0.94492940    -0.05200
C840        C  0.64710356  0.42088909  0.95358143    -0.22500
H841        H  0.56331073  0.34625758  0.97251617     0.19300
H842        H  0.57472343  0.49074804  0.93982762     0.18100
H843        H  0.48212154  0.44118911  0.45576454     0.14400
H844        H  0.65681446  0.39691628  0.95941357     0.14200
H845        H  0.47667156  0.32021309  0.98434417     0.32400
H846        H  0.66198409  0.51822742  0.93430833     0.35100
C847        C  0.32442884  0.68589561  0.69547622     0.20700
C848        C  0.28303868  0.64864968  0.69598124    -0.39100
C849        C  0.28170507  0.60967583  0.70763658     0.19700
C850        C  0.31872108  0.60789697  0.71797699     0.22400
C851        C  0.36020158  0.64501472  0.71667947    -0.39600
C852        C  0.36154082  0.68397834  0.70501093     0.21200
N853        N  0.33422390  0.72709961  0.68763543    -0.32900
C854        C  0.37792781  0.75159365  0.69208366    -0.10500
C855        C  0.39610318  0.72576534  0.70253833    -0.29300
N856        N  0.30861238  0.56719040  0.72919246    -0.45900
C857        C  0.26473386  0.54260715  0.72582553    -0.05200
C858        C  0.24694027  0.56817789  0.71230449    -0.22500
H859        H  0.25393888  0.65002190  0.68861077     0.19300
H860        H  0.38923008  0.64378093  0.72491686     0.18100
H861        H  0.42993643  0.73633320  0.70887812     0.14400
H862        H  0.21304167  0.55802042  0.70730783     0.14200
H863        H  0.31248024  0.73794041  0.68031268     0.32400
H864        H  0.33041266  0.55688747  0.73826826     0.35100
loop_ 
_geom_bond_atom_site_label_1 
_geom_bond_atom_site_label_2 
_geom_bond_distance 
_geom_bond_site_symmetry_2 
_ccdc_geom_bond_type 
C1            C2   1.399       .  A
C1            C6   1.400       .  A
C1          C425   1.490       .  S
C2            C3   1.409       .  A
C2            H7   1.083       .  S
C3            C4   1.414       .  A
C3           C71   1.489       .  S
C4            C5   1.416       .  A
C4            H8   1.083       .  S
C5            C6   1.413       .  A
C5          C214   1.494       .  S
C6            H9   1.082       .  S
C10          C11   1.399   1_556  A
C10         C447   1.400       .  A
C10         C836   1.487       .  S
C11          C12   1.410       .  A
C11          H16   1.083       .  S
C12          C13   1.415   1_554  A
C12         C186   1.491       .  S
C13         C446   1.413       .  A
C13          H17   1.083   1_556  S
C14          C15   1.410       .  A
C14         C445   1.413       .  A
C14         C213   1.487       .  S
C15         C442   1.400       .  A
C15          H18   1.084       .  S
C19          C20   1.399       .  A
C19         C456   1.399       .  A
C19         C386   1.491       .  S
C20          C21   1.411       .  A
C20          H25   1.082       .  S
C21         C454   1.420       .  A
C21         C215   1.499       .  S
C22          C23   1.419       .  A
C22         C453   1.420   1_554  A
C22          H26   1.083   1_554  S
C23          C24   1.411       .  A
C23          C74   1.496       .  S
C24         C451   1.399       .  A
C24          H27   1.083       .  S
C28          C29   1.399       .  A
C28          C33   1.405       .  A
C28         C371   1.496       .  S
C29          C30   1.410       .  A
C29          H34   1.083       .  S
C30          C31   1.416       .  A
C30         C158   1.494       .  S
C31          C32   1.420       .  A
C31          H35   1.083       .  S
C32          C33   1.416       .  A
C32          C73   1.503   1_655  S
C33          H36   1.083       .  S
C37          C42   1.396       .  A
C37         C470   1.401       .  A
C37         C350   1.487       .  S
C38          C39   1.415       .  A
C38         C469   1.401   1_554  A
C38          H43   1.083       .  S
C39          C40   1.419   1_554  A
C39          C72   1.498   1_655  S
C40         C473   1.416       .  A
C40          H44   1.083   1_556  S
C41          C42   1.406       .  A
C41         C472   1.416       .  A
C41         C159   1.488       .  S
C42          H45   1.084       .  S
C46         C353   1.476       .  S
C46          N47   1.361       .  A
C46          N51   1.360       .  A
N47          C48   1.359       .  A
C48         C332   1.474       .  S
C48          N49   1.358       .  A
N49          C50   1.357       .  A
C50         C407   1.474       .  S
C50          N51   1.359       .  A
C52          C53   1.398       .  A
C52         C489   1.400       .  A
C52         C335   1.490       .  S
C53          C54   1.409   1_655  A
C53          H58   1.083   1_655  S
C54         C487   1.416   1_455  A
C54         C201   1.490       .  S
C55          C56   1.419   1_556  A
C55         C486   1.416   1_655  A
C55          H59   1.083   1_656  S
C56          C57   1.412       .  A
C56         C172   1.498       .  S
C57         C484   1.400   1_554  A
C57          H60   1.082       .  S
O61         Cu69   1.992       .  S
O61          C71   1.277       .  A
O62         Cu69   1.998       .  S
O62          C72   1.277       .  A
O63         Cu69   2.009       .  S
O63          C73   1.278       .  A
O64         Cu69   2.004       .  S
O64          C74   1.279       .  A
O65         Cu70   2.060       .  S
O65          C74   1.283       .  A
O66         Cu70   2.065       .  S
O66          C73   1.284       .  A
O67         Cu70   2.059       .  S
O67          C72   1.283       .  A
O68         Cu70   2.053       .  S
O68          C71   1.282       .  A
Cu69        Cu70   2.363       .  S
C75          C76   1.399       .  A
C75          C80   1.396       .  A
C75         C317   1.486       .  S
C76          C77   1.412       .  A
C76          H81   1.083   1_545  S
C77          C78   1.417       .  A
C77         C202   1.496       .  S
C78          C79   1.416       .  A
C78          H82   1.083       .  S
C79          C80   1.408       .  A
C79         C185   1.488       .  S
C80          H83   1.083       .  S
C84         C314   1.477       .  S
C84          N85   1.362       .  A
C84          N89   1.362       .  A
N85          C86   1.359       .  A
C86         C299   1.475       .  S
C86          N87   1.357       .  A
N87          C88   1.357       .  A
C88         C422   1.476       .  S
C88          N89   1.360       .  A
C90          C91   1.400   1_565  A
C90          C95   1.397       .  A
C90         C296   1.484       .  S
C91          C92   1.412       .  A
C91          H96   1.083       .  S
C92          C93   1.417       .  A
C92         C160   1.497       .  S
C93          C94   1.416       .  A
C93          H97   1.083       .  S
C94          C95   1.408   1_545  A
C94         C171   1.488   1_545  S
C95          H98   1.084       .  S
C99         C100   1.397       .  A
C99         C104   1.403       .  A
C99         C281   1.488       .  S
C100        C101   1.407       .  A
C100        H105   1.084       .  S
C101        C102   1.413       .  A
C101        C216   1.487       .  S
C102        C103   1.416       .  A
C102        H106   1.083       .  S
C103        C104   1.416       .  A
C103        C187   1.496       .  S
C104        H107   1.083       .  S
C108        C368   1.484       .  S
C108        N109   1.362       .  A
C108        N113   1.362       .  A
N109        C110   1.361       .  A
C110        C260   1.481       .  S
C110        N111   1.359       .  A
N111        C112   1.360       .  A
C112        C278   1.480       .  S
C112        N113   1.362       .  A
C114        C115   1.403       .  A
C114        C119   1.397       .  A
C114        C263   1.489       .  S
C115        C116   1.415       .  A
C115        H120   1.083       .  S
C116        C117   1.417       .  A
C116        C173   1.495       .  S
C117        C118   1.412   1_655  A
C117        H121   1.083   1_655  S
C118        C119   1.408   1_455  A
C118        C200   1.486       .  S
C119        H122   1.084       .  S
C123        C128   1.401       .  A
C123        C556   1.397       .  A
C123        C242   1.489       .  S
C124        C125   1.408       .  A
C124        C555   1.397       .  A
C124        H129   1.084       .  S
C125        C126   1.415   1_554  A
C125        C188   1.489       .  S
C126        C559   1.417       .  A
C126        H130   1.083       .  S
C127        C128   1.415       .  A
C127        C558   1.417       .  A
C127        C199   1.496       .  S
C128        H131   1.083   1_545  S
C132        C245   1.478       .  S
C132        N133   1.361       .  A
C132        N137   1.360       .  A
N133        C134   1.361       .  A
C134        C224   1.478       .  S
C134        N135   1.360       .  A
N135        C136   1.359       .  A
C136        C389   1.477       .  S
C136        N137   1.359       .  A
C138        C139   1.401       .  A
C138        C575   1.399   1_545  A
C138        C227   1.488   1_545  S
C139        C140   1.414       .  A
C139        H144   1.083       .  S
C140        C573   1.415       .  A
C140        C157   1.495       .  S
C141        C142   1.413       .  A
C141        C572   1.415   1_554  A
C141        H145   1.083   1_554  S
C142        C143   1.409   1_545  A
C142        C174   1.487   1_545  S
C143        C570   1.399   1_565  A
C143        H146   1.084       .  S
O147       Cu155   2.061       .  S
O147        C157   1.284       .  A
O148       Cu155   2.063       .  S
O148        C158   1.284       .  A
O149       Cu155   2.050       .  S
O149        C159   1.281       .  A
O150       Cu155   2.058       .  S
O150        C160   1.283       .  A
O151       Cu156   1.999       .  S
O151        C160   1.278       .  A
O152       Cu156   1.994       .  S
O152        C159   1.278       .  A
O153       Cu156   1.992       .  S
O153        C158   1.277       .  A
O154       Cu156   1.991       .  S
O154        C157   1.276       .  A
Cu155      Cu156   2.364       .  S
O161       Cu169   1.998       .  S
O161        C171   1.278       .  A
O162       Cu169   2.002       .  S
O162        C172   1.279       .  A
O163       Cu169   2.001       .  S
O163        C173   1.277       .  A
O164       Cu169   1.997       .  S
O164        C174   1.277       .  A
O165       Cu170   2.049       .  S
O165        C174   1.282   1_545  A
O166       Cu170   2.051   1_565  S
O166        C173   1.283       .  A
O167       Cu170   2.056   1_565  S
O167        C172   1.282       .  A
O168       Cu170   2.048       .  S
O168        C171   1.281   1_545  A
Cu169      Cu170   2.365   1_565  S
O175       Cu183   1.993       .  S
O175        C185   1.278       .  A
O176       Cu183   1.992       .  S
O176        C186   1.277       .  A
O177       Cu183   1.997       .  S
O177        C187   1.277       .  A
O178       Cu183   1.990       .  S
O178        C188   1.277       .  A
O179       Cu184   2.055       .  S
O179        C188   1.282       .  A
O180       Cu184   2.058       .  S
O180        C187   1.284       .  A
O181       Cu184   2.048       .  S
O181        C186   1.282       .  A
O182       Cu184   2.047       .  S
O182        C185   1.281       .  A
Cu183      Cu184   2.366       .  S
O189       Cu197   2.060       .  S
O189        C199   1.284       .  A
O190       Cu197   2.053   1_565  S
O190        C200   1.282       .  A
O191       Cu197   2.055   1_565  S
O191        C201   1.282       .  A
O192       Cu197   2.060       .  S
O192        C202   1.283       .  A
O193       Cu198   1.992       .  S
O193        C202   1.277   1_565  A
O194       Cu198   1.992       .  S
O194        C201   1.277       .  A
O195       Cu198   1.987       .  S
O195        C200   1.276       .  A
O196       Cu198   1.993       .  S
O196        C199   1.276   1_565  A
Cu197      Cu198   2.365   1_545  S
O203       Cu211   1.990       .  S
O203        C213   1.276       .  A
O204       Cu211   1.991       .  S
O204        C214   1.277       .  A
O205       Cu211   1.997       .  S
O205        C215   1.278       .  A
O206       Cu211   1.993       .  S
O206        C216   1.277       .  A
O207       Cu212   2.051       .  S
O207        C216   1.282       .  A
O208       Cu212   2.059       .  S
O208        C215   1.282       .  A
O209       Cu212   2.055       .  S
O209        C214   1.283       .  A
O210       Cu212   2.052       .  S
O210        C213   1.283       .  A
Cu211      Cu212   2.365       .  S
C217        C222   1.384       .  A
C217        C218   1.407       .  A
C217        N223   1.346       .  A
C218        C219   1.407       .  A
C218        H661   1.082   1_565  S
C219        C220   1.383       .  A
C219        C660   1.383   1_565  A
C220        C221   1.404       .  A
C220        N226   1.345       .  A
C221        C222   1.403       .  A
C221        H230   1.082       .  S
C222        C225   1.379       .  A
N223        C224   1.357       .  A
N223        H233   1.045       .  S
C224        C225   1.396       .  A
C225        H231   1.082       .  S
N226        C227   1.357       .  A
N226        H234   1.044       .  S
C227        C660   1.400   1_565  A
C228        C651   1.383   1_545  A
C228        C659   1.400   1_545  A
C228        H232   1.082       .  S
H229        C650   1.082   1_545  S
C235        C240   1.383       .  A
C235        C236   1.406       .  A
C235        N673   1.347       .  A
C236        C237   1.405       .  A
C236        H679   1.082       .  S
C237        C246   1.380       .  A
C237        C238   1.384       .  A
C238        C239   1.405       .  A
C238        N244   1.346       .  A
C239        C240   1.405       .  A
C239        H248   1.082   1_565  S
C240        C243   1.379   1_565  A
N241        C667   1.347       .  A
N241        C674   1.358   1_565  A
N241        H251   1.044       .  S
C242        C243   1.399       .  A
C242        N673   1.358   1_545  A
C243        H249   1.082       .  S
N244        C245   1.357       .  A
N244        H252   1.046       .  S
C245        C246   1.397       .  A
C246        H250   1.082       .  S
H247        C668   1.082       .  S
C253        C258   1.383       .  A
C253        C254   1.407       .  A
C253        N259   1.346       .  A
C254        C255   1.406       .  A
C254        H265   1.082       .  S
C255        C264   1.383       .  A
C255        C256   1.383       .  A
C256        C257   1.406       .  A
C256        N262   1.345       .  A
C257        C258   1.405       .  A
C257        H266   1.082       .  S
C258        C261   1.382       .  A
N259        C260   1.358       .  A
N259        H269   1.042       .  S
C260        C261   1.397       .  A
C261        H267   1.082       .  S
N262        C263   1.358       .  A
N262        H270   1.043       .  S
C263        C264   1.399       .  A
C264        H268   1.082       .  S
C271        C276   1.384       .  A
C271        C272   1.406       .  A
C271        N277   1.347       .  A
C272        C273   1.406       .  A
C272        H283   1.082       .  S
C273        C282   1.383       .  A
C273        C274   1.383       .  A
C274        C275   1.406       .  A
C274        N280   1.345       .  A
C275        C276   1.405       .  A
C275        H284   1.082       .  S
C276        C279   1.380       .  A
N277        C278   1.357       .  A
N277        H287   1.041       .  S
C278        C279   1.397       .  A
C279        H285   1.082       .  S
N280        C281   1.358       .  A
N280        H288   1.044       .  S
C281        C282   1.398       .  A
C282        H286   1.082       .  S
C289        C294   1.384       .  A
C289        C290   1.402       .  A
C289        N295   1.344       .  A
C290        C291   1.402       .  A
C290        H301   1.082       .  S
C291        C300   1.375       .  A
C291        C292   1.384       .  A
C292        C293   1.406       .  A
C292        N298   1.347       .  A
C293        C294   1.406       .  A
C293        H302   1.082   1_565  S
C294        C297   1.381   1_565  A
N295        C296   1.356       .  A
N295        H305   1.045       .  S
C296        C297   1.398   1_565  A
C297        H303   1.082       .  S
N298        C299   1.357       .  A
N298        H306   1.045       .  S
C299        C300   1.395       .  A
C300        H304   1.082       .  S
C307        C312   1.384       .  A
C307        C308   1.405       .  A
C307        N313   1.345       .  A
C308        C309   1.405       .  A
C308        H319   1.082       .  S
C309        C318   1.380       .  A
C309        C310   1.383       .  A
C310        C311   1.404       .  A
C310        N316   1.344   1_565  A
C311        C312   1.403       .  A
C311        H320   1.082   1_565  S
C312        C315   1.378       .  A
N313        C314   1.357       .  A
N313        H323   1.046       .  S
C314        C315   1.396       .  A
C315        H321   1.082       .  S
N316        C317   1.358       .  A
N316        H324   1.044       .  S
C317        C318   1.399   1_545  A
C318        H322   1.082       .  S
C325        C330   1.384       .  A
C325        C326   1.404       .  A
C325        N331   1.345       .  A
C326        C327   1.404       .  A
C326        H337   1.082       .  S
C327        C336   1.379       .  A
C327        C328   1.383       .  A
C328        C329   1.404       .  A
C328        N766   1.344       .  A
C329        C330   1.403       .  A
C329        H770   1.082       .  S
C330        C333   1.378       .  A
N331        C332   1.356       .  A
N331        H341   1.045       .  S
C332        C333   1.396       .  A
C333        H339   1.082       .  S
N334        C760   1.344       .  A
N334        C767   1.359       .  A
N334        H342   1.044       .  S
C335        C336   1.400       .  A
C335        N766   1.359       .  A
C336        H340   1.082       .  S
H338        C761   1.082       .  S
C343        C348   1.383       .  A
C343        C344   1.405       .  A
C343        N349   1.346       .  A
C344        C345   1.405       .  A
C344        H355   1.082       .  S
C345        C354   1.380       .  A
C345        C346   1.384       .  A
C346        C347   1.403       .  A
C346        N352   1.344       .  A
C347        C348   1.403       .  A
C347        H788   1.082       .  S
C348        C351   1.377       .  A
N349        C350   1.358       .  A
N349        H359   1.044       .  S
C350        C351   1.398       .  A
C351        H789   1.082       .  S
N352        C353   1.356       .  A
N352        H360   1.046       .  S
C353        C354   1.396       .  A
C354        H358   1.082       .  S
H356        C779   1.082       .  S
H357        C783   1.082       .  S
C361        C366   1.383       .  A
C361        C362   1.408       .  A
C361        N367   1.348       .  A
C362        C363   1.408       .  A
C362        H373   1.082       .  S
C363        C372   1.383       .  A
C363        C364   1.383       .  A
C364        C365   1.406       .  A
C364        N370   1.347       .  A
C365        C366   1.405       .  A
C365        H374   1.082       .  S
C366        C369   1.381       .  A
N367        C368   1.359       .  A
N367        H377   1.046       .  S
C368        C369   1.397       .  A
C369        H375   1.082       .  S
N370        C371   1.358       .  A
N370        H378   1.044       .  S
C371        C372   1.402       .  A
C372        H376   1.082       .  S
C379        C380   1.405       .  A
C379        C816   1.383       .  A
C379        N385   1.345       .  A
C380        C381   1.404       .  A
C380        H391   1.082       .  S
C381        C390   1.380       .  A
C381        C814   1.384       .  A
C382        C383   1.405       .  A
C382        C813   1.384       .  A
C382        N388   1.346       .  A
C383        C384   1.405       .  A
C383        H392   1.082       .  S
C384        C387   1.379       .  A
C384        C811   1.383       .  A
N385        C818   1.359       .  A
N385        H395   1.043       .  S
C386        C387   1.400       .  A
C386        N817   1.359       .  A
C387        H393   1.082       .  S
N388        C389   1.357       .  A
N388        H396   1.040       .  S
C389        C822   1.396       .  A
C390        C821   1.396       .  A
C390        H394   1.082       .  S
C397        C402   1.383       .  A
C397        C398   1.406       .  A
C397        N403   1.345       .  A
C398        C399   1.404       .  A
C398        H409   1.082       .  S
C399        C408   1.381       .  A
C399        C400   1.384       .  A
C400        C401   1.403       .  A
C400        N406   1.343       .  A
C401        C402   1.402       .  A
C401        H410   1.082       .  S
C402        C405   1.379       .  A
N403        C404   1.359       .  A
N403        H413   1.044       .  S
C404        C405   1.398       .  A
C404        C442   1.487       .  S
C405        H843   1.082       .  S
N406        C407   1.356       .  A
N406        H414   1.046       .  S
C407        C408   1.396       .  A
C408        H412   1.082       .  S
H411        C837   1.082       .  S
C415        C420   1.384       .  A
C415        C416   1.404       .  A
C415        N421   1.346       .  A
C416        C417   1.405       .  A
C416        H427   1.082       .  S
C417        C426   1.379       .  A
C417        C418   1.383       .  A
C418        C419   1.405       .  A
C418        N424   1.346       .  A
C419        C420   1.404       .  A
C419        H428   1.082       .  S
C420        C423   1.378       .  A
N421        C422   1.356       .  A
N421        H431   1.045       .  S
C422        C423   1.397       .  A
C423        H429   1.082       .  S
N424        C425   1.359       .  A
N424        H432   1.044       .  S
C425        C426   1.400       .  A
C426        H430   1.082       .  S
C433        C434   1.399       .  A
C433        C438   1.400       .  A
C433        C857   1.490       .  S
C434        C435   1.409       .  A
C434        H439   1.083       .  S
C435        C436   1.414       .  A
C435        C503   1.489       .  S
C436        C437   1.416       .  A
C436        H440   1.083       .  S
C437        C438   1.413       .  A
C437        C646   1.494       .  S
C438        H441   1.082       .  S
C442        C443   1.399       .  A
C443        C444   1.410       .  A
C443        H448   1.083       .  S
C444        C445   1.415       .  A
C444        C618   1.491       .  S
C445        H449   1.083       .  S
C446        C447   1.410       .  A
C446        C645   1.487       .  S
C447        H450   1.084       .  S
C451        C452   1.399   1_554  A
C451        C818   1.491       .  S
C452        C453   1.411       .  A
C452        H457   1.082       .  S
C453        C647   1.499       .  S
C454        C455   1.419       .  A
C454        H458   1.083       .  S
C455        C456   1.411       .  A
C455        C506   1.496       .  S
C456        H459   1.083       .  S
C460        C461   1.399       .  A
C460        C465   1.405       .  A
C460        C803   1.496       .  S
C461        C462   1.410       .  A
C461        H466   1.083       .  S
C462        C463   1.416       .  A
C462        C590   1.494       .  S
C463        C464   1.420       .  A
C463        H467   1.083       .  S
C464        C465   1.416       .  A
C464        C505   1.503   1_655  S
C465        H468   1.083       .  S
C469        C474   1.396       .  A
C469        C782   1.487       .  S
C470        C471   1.415       .  A
C470        H475   1.083       .  S
C471        C472   1.419       .  A
C471        C504   1.498   1_655  S
C472        H476   1.083       .  S
C473        C474   1.406       .  A
C473        C591   1.488       .  S
C474        H477   1.084       .  S
C478        C785   1.476       .  S
C478        N479   1.361       .  A
C478        N483   1.360       .  A
N479        C480   1.359       .  A
C480        C764   1.474       .  S
C480        N481   1.358       .  A
N481        C482   1.357       .  A
C482        C839   1.474       .  S
C482        N483   1.359       .  A
C484        C485   1.398       .  A
C484        C767   1.490       .  S
C485        C486   1.409   1_655  A
C485        H490   1.083   1_655  S
C486        C633   1.490       .  S
C487        C488   1.419       .  A
C487        H491   1.083   1_655  S
C488        C489   1.412       .  A
C488        C604   1.498       .  S
C489        H492   1.082       .  S
O493       Cu501   1.992       .  S
O493        C503   1.277       .  A
O494       Cu501   1.998       .  S
O494        C504   1.277       .  A
O495       Cu501   2.009       .  S
O495        C505   1.278       .  A
O496       Cu501   2.004       .  S
O496        C506   1.279       .  A
O497       Cu502   2.060       .  S
O497        C506   1.283       .  A
O498       Cu502   2.065       .  S
O498        C505   1.284       .  A
O499       Cu502   2.059       .  S
O499        C504   1.283       .  A
O500       Cu502   2.053       .  S
O500        C503   1.282       .  A
Cu501      Cu502   2.363       .  S
C507        C508   1.399       .  A
C507        C512   1.396       .  A
C507        C749   1.486       .  S
C508        C509   1.412       .  A
C508        H513   1.083   1_545  S
C509        C510   1.417       .  A
C509        C634   1.496       .  S
C510        C511   1.416       .  A
C510        H514   1.083       .  S
C511        C512   1.408       .  A
C511        C617   1.488       .  S
C512        H515   1.083       .  S
C516        C746   1.477       .  S
C516        N517   1.362       .  A
C516        N521   1.362       .  A
N517        C518   1.359       .  A
C518        C731   1.475       .  S
C518        N519   1.357       .  A
N519        C520   1.357       .  A
C520        C854   1.476       .  S
C520        N521   1.360       .  A
C522        C523   1.400   1_565  A
C522        C527   1.397       .  A
C522        C728   1.484       .  S
C523        C524   1.412       .  A
C523        H528   1.083       .  S
C524        C525   1.417       .  A
C524        C592   1.497       .  S
C525        C526   1.416       .  A
C525        H529   1.083       .  S
C526        C527   1.408   1_545  A
C526        C603   1.488   1_545  S
C527        H530   1.084       .  S
C531        C532   1.397       .  A
C531        C536   1.403       .  A
C531        C713   1.488       .  S
C532        C533   1.407       .  A
C532        H537   1.084       .  S
C533        C534   1.413       .  A
C533        C648   1.487       .  S
C534        C535   1.416       .  A
C534        H538   1.083       .  S
C535        C536   1.416       .  A
C535        C619   1.496       .  S
C536        H539   1.083       .  S
C540        C800   1.484       .  S
C540        N541   1.362       .  A
C540        N545   1.362       .  A
N541        C542   1.361       .  A
C542        C692   1.481       .  S
C542        N543   1.359       .  A
N543        C544   1.360       .  A
C544        C710   1.480       .  S
C544        N545   1.362       .  A
C546        C547   1.403       .  A
C546        C551   1.397       .  A
C546        C695   1.489       .  S
C547        C548   1.415       .  A
C547        H552   1.083       .  S
C548        C549   1.417       .  A
C548        C605   1.495       .  S
C549        C550   1.412   1_655  A
C549        H553   1.083   1_655  S
C550        C551   1.408   1_455  A
C550        C632   1.486       .  S
C551        H554   1.084       .  S
C555        C560   1.401   1_554  A
C555        C674   1.489       .  S
C556        C557   1.408       .  A
C556        H561   1.084       .  S
C557        C558   1.415       .  A
C557        C620   1.489       .  S
C558        H562   1.083       .  S
C559        C560   1.415       .  A
C559        C631   1.496       .  S
C560        H563   1.083   1_545  S
C564        C677   1.478       .  S
C564        N565   1.361       .  A
C564        N569   1.360       .  A
N565        C566   1.361       .  A
C566        C656   1.478       .  S
C566        N567   1.360       .  A
N567        C568   1.359       .  A
C568        C821   1.477       .  S
C568        N569   1.359       .  A
C570        C571   1.401   1_554  A
C570        C659   1.488   1_545  S
C571        C572   1.414       .  A
C571        H576   1.083       .  S
C572        C589   1.495       .  S
C573        C574   1.413       .  A
C573        H577   1.083       .  S
C574        C575   1.409   1_545  A
C574        C606   1.487   1_545  S
C575        H578   1.084       .  S
O579       Cu587   2.061       .  S
O579        C589   1.284       .  A
O580       Cu587   2.063       .  S
O580        C590   1.284       .  A
O581       Cu587   2.050       .  S
O581        C591   1.281       .  A
O582       Cu587   2.058       .  S
O582        C592   1.283       .  A
O583       Cu588   1.999       .  S
O583        C592   1.278       .  A
O584       Cu588   1.994       .  S
O584        C591   1.278       .  A
O585       Cu588   1.992       .  S
O585        C590   1.277       .  A
O586       Cu588   1.991       .  S
O586        C589   1.276       .  A
Cu587      Cu588   2.364       .  S
O593       Cu601   1.998       .  S
O593        C603   1.278       .  A
O594       Cu601   2.002       .  S
O594        C604   1.279       .  A
O595       Cu601   2.001       .  S
O595        C605   1.277       .  A
O596       Cu601   1.997       .  S
O596        C606   1.277       .  A
O597       Cu602   2.049       .  S
O597        C606   1.282   1_545  A
O598       Cu602   2.051   1_565  S
O598        C605   1.283       .  A
O599       Cu602   2.056   1_565  S
O599        C604   1.282       .  A
O600       Cu602   2.048       .  S
O600        C603   1.281   1_545  A
Cu601      Cu602   2.365   1_565  S
O607       Cu615   1.993       .  S
O607        C617   1.278       .  A
O608       Cu615   1.992       .  S
O608        C618   1.277       .  A
O609       Cu615   1.997       .  S
O609        C619   1.277       .  A
O610       Cu615   1.990       .  S
O610        C620   1.277       .  A
O611       Cu616   2.055       .  S
O611        C620   1.282       .  A
O612       Cu616   2.058       .  S
O612        C619   1.284       .  A
O613       Cu616   2.048       .  S
O613        C618   1.282       .  A
O614       Cu616   2.047       .  S
O614        C617   1.281       .  A
Cu615      Cu616   2.366       .  S
O621       Cu629   2.060       .  S
O621        C631   1.284       .  A
O622       Cu629   2.053   1_565  S
O622        C632   1.282       .  A
O623       Cu629   2.055   1_565  S
O623        C633   1.282       .  A
O624       Cu629   2.060       .  S
O624        C634   1.283       .  A
O625       Cu630   1.992       .  S
O625        C634   1.277   1_565  A
O626       Cu630   1.992       .  S
O626        C633   1.277       .  A
O627       Cu630   1.987       .  S
O627        C632   1.276       .  A
O628       Cu630   1.993       .  S
O628        C631   1.276   1_565  A
Cu629      Cu630   2.365   1_545  S
O635       Cu643   1.990       .  S
O635        C645   1.276       .  A
O636       Cu643   1.991       .  S
O636        C646   1.277       .  A
O637       Cu643   1.997       .  S
O637        C647   1.278       .  A
O638       Cu643   1.993       .  S
O638        C648   1.277       .  A
O639       Cu644   2.051       .  S
O639        C648   1.282       .  A
O640       Cu644   2.059       .  S
O640        C647   1.282       .  A
O641       Cu644   2.055       .  S
O641        C646   1.283       .  A
O642       Cu644   2.052       .  S
O642        C645   1.283       .  A
Cu643      Cu644   2.365       .  S
C649        C654   1.384       .  A
C649        C650   1.407       .  A
C649        N655   1.346       .  A
C650        C651   1.407       .  A
C651        C652   1.383       .  A
C652        C653   1.404       .  A
C652        N658   1.345       .  A
C653        C654   1.403       .  A
C653        H662   1.082       .  S
C654        C657   1.379       .  A
N655        C656   1.357       .  A
N655        H665   1.045       .  S
C656        C657   1.396       .  A
C657        H663   1.082       .  S
N658        C659   1.357       .  A
N658        H666   1.044       .  S
C660        H664   1.082       .  S
C667        C672   1.383       .  A
C667        C668   1.406       .  A
C668        C669   1.405       .  A
C669        C678   1.380       .  A
C669        C670   1.384       .  A
C670        C671   1.405       .  A
C670        N676   1.346       .  A
C671        C672   1.405       .  A
C671        H680   1.082   1_565  S
C672        C675   1.379   1_565  A
N673        H683   1.044       .  S
C674        C675   1.399       .  A
C675        H681   1.082       .  S
N676        C677   1.357       .  A
N676        H684   1.046       .  S
C677        C678   1.397       .  A
C678        H682   1.082       .  S
C685        C690   1.383       .  A
C685        C686   1.407       .  A
C685        N691   1.346       .  A
C686        C687   1.406       .  A
C686        H697   1.082       .  S
C687        C696   1.383       .  A
C687        C688   1.383       .  A
C688        C689   1.406       .  A
C688        N694   1.345       .  A
C689        C690   1.405       .  A
C689        H698   1.082       .  S
C690        C693   1.382       .  A
N691        C692   1.358       .  A
N691        H701   1.042       .  S
C692        C693   1.397       .  A
C693        H699   1.082       .  S
N694        C695   1.358       .  A
N694        H702   1.043       .  S
C695        C696   1.399       .  A
C696        H700   1.082       .  S
C703        C708   1.384       .  A
C703        C704   1.406       .  A
C703        N709   1.347       .  A
C704        C705   1.406       .  A
C704        H715   1.082       .  S
C705        C714   1.383       .  A
C705        C706   1.383       .  A
C706        C707   1.406       .  A
C706        N712   1.345       .  A
C707        C708   1.405       .  A
C707        H716   1.082       .  S
C708        C711   1.380       .  A
N709        C710   1.357       .  A
N709        H719   1.041       .  S
C710        C711   1.397       .  A
C711        H717   1.082       .  S
N712        C713   1.358       .  A
N712        H720   1.044       .  S
C713        C714   1.398       .  A
C714        H718   1.082       .  S
C721        C726   1.384       .  A
C721        C722   1.402       .  A
C721        N727   1.344       .  A
C722        C723   1.402       .  A
C722        H733   1.082       .  S
C723        C732   1.375       .  A
C723        C724   1.384       .  A
C724        C725   1.406       .  A
C724        N730   1.347       .  A
C725        C726   1.406       .  A
C725        H734   1.082   1_565  S
C726        C729   1.381   1_565  A
N727        C728   1.356       .  A
N727        H737   1.045       .  S
C728        C729   1.398   1_565  A
C729        H735   1.082       .  S
N730        C731   1.357       .  A
N730        H738   1.045       .  S
C731        C732   1.395       .  A
C732        H736   1.082       .  S
C739        C744   1.384       .  A
C739        C740   1.405       .  A
C739        N745   1.345       .  A
C740        C741   1.405       .  A
C740        H751   1.082       .  S
C741        C750   1.380       .  A
C741        C742   1.383       .  A
C742        C743   1.404       .  A
C742        N748   1.344   1_565  A
C743        C744   1.403       .  A
C743        H752   1.082   1_565  S
C744        C747   1.378       .  A
N745        C746   1.357       .  A
N745        H755   1.046       .  S
C746        C747   1.396       .  A
C747        H753   1.082       .  S
N748        C749   1.358       .  A
N748        H756   1.044       .  S
C749        C750   1.399   1_545  A
C750        H754   1.082       .  S
C757        C762   1.384       .  A
C757        C758   1.404       .  A
C757        N763   1.345       .  A
C758        C759   1.404       .  A
C758        H769   1.082       .  S
C759        C768   1.379       .  A
C759        C760   1.383       .  A
C760        C761   1.404       .  A
C761        C762   1.403       .  A
C762        C765   1.378       .  A
N763        C764   1.356       .  A
N763        H773   1.045       .  S
C764        C765   1.396       .  A
C765        H771   1.082       .  S
N766        H774   1.044       .  S
C767        C768   1.400       .  A
C768        H772   1.082       .  S
C775        C780   1.383       .  A
C775        C776   1.405       .  A
C775        N781   1.346       .  A
C776        C777   1.405       .  A
C776        H787   1.082       .  S
C777        C786   1.380       .  A
C777        C778   1.384       .  A
C778        C779   1.403       .  A
C778        N784   1.344       .  A
C779        C780   1.403       .  A
C780        C783   1.377       .  A
N781        C782   1.358       .  A
N781        H791   1.044       .  S
C782        C783   1.398       .  A
N784        C785   1.356       .  A
N784        H792   1.046       .  S
C785        C786   1.396       .  A
C786        H790   1.082       .  S
C793        C798   1.383       .  A
C793        C794   1.408       .  A
C793        N799   1.348       .  A
C794        C795   1.408       .  A
C794        H805   1.082       .  S
C795        C804   1.383       .  A
C795        C796   1.383       .  A
C796        C797   1.406       .  A
C796        N802   1.347       .  A
C797        C798   1.405       .  A
C797        H806   1.082       .  S
C798        C801   1.381       .  A
N799        C800   1.359       .  A
N799        H809   1.046       .  S
C800        C801   1.397       .  A
C801        H807   1.082       .  S
N802        C803   1.358       .  A
N802        H810   1.044       .  S
C803        C804   1.402       .  A
C804        H808   1.082       .  S
C811        C812   1.405       .  A
C811        N817   1.345       .  A
C812        C813   1.404       .  A
C812        H823   1.082       .  S
C813        C822   1.380       .  A
C814        C815   1.405       .  A
C814        N820   1.346       .  A
C815        C816   1.405       .  A
C815        H824   1.082       .  S
C816        C819   1.379       .  A
N817        H827   1.043       .  S
C818        C819   1.400       .  A
C819        H825   1.082       .  S
N820        C821   1.357       .  A
N820        H828   1.040       .  S
C822        H826   1.082       .  S
C829        C834   1.383       .  A
C829        C830   1.406       .  A
C829        N835   1.345       .  A
C830        C831   1.404       .  A
C830        H841   1.082       .  S
C831        C840   1.381       .  A
C831        C832   1.384       .  A
C832        C833   1.403       .  A
C832        N838   1.343       .  A
C833        C834   1.402       .  A
C833        H842   1.082       .  S
C834        C837   1.379       .  A
N835        C836   1.359       .  A
N835        H845   1.044       .  S
C836        C837   1.398       .  A
N838        C839   1.356       .  A
N838        H846   1.046       .  S
C839        C840   1.396       .  A
C840        H844   1.082       .  S
C847        C852   1.384       .  A
C847        C848   1.404       .  A
C847        N853   1.346       .  A
C848        C849   1.405       .  A
C848        H859   1.082       .  S
C849        C858   1.379       .  A
C849        C850   1.383       .  A
C850        C851   1.405       .  A
C850        N856   1.346       .  A
C851        C852   1.404       .  A
C851        H860   1.082       .  S
C852        C855   1.378       .  A
N853        C854   1.356       .  A
N853        H863   1.045       .  S
C854        C855   1.397       .  A
C855        H861   1.082       .  S
N856        C857   1.359       .  A
N856        H864   1.044       .  S
C857        C858   1.399       .  A
C858        H862   1.082       .  S
