geometry optimzed in LAMMPS
_audit_creation_date              2020-12-01 
_audit_creation_method            'lammps2cif' 
_symmetry_space_group_name_H-M    'P1' 
_symmetry_Int_Tables_number       1 
_symmetry_cell_setting            triclinic 
loop_ 
_symmetry_equiv_pos_as_xyz 
  x,y,z 
_cell_length_a                    38.018309 
_cell_length_b                    38.0442327865365 
_cell_length_c                    28.59862456687044 
_cell_angle_alpha                 89.65870752030368 
_cell_angle_beta                  90.16952223081904 
_cell_angle_gamma                 90.61977097597997 
loop_ 
_atom_site_label 
_atom_site_type_symbol 
_atom_site_fract_x 
_atom_site_fract_y 
_atom_site_fract_z 
_atom_site_charge 
N1          N  0.97824409  0.76947504  0.49218839    -0.03400
C2          C  0.97707277  0.73376218  0.48835270    -0.00800
C3          C  0.97439491  0.71624617  0.02559280    -0.23700
C4          C  0.98015231  0.74105391  0.05928962    -0.23900
C5          C  0.98051930  0.77320323  0.03676996    -0.00900
H6          H  0.97445196  0.68803346  0.03074077     0.12900
H7          H  0.98473154  0.73617435  0.09611808     0.12900
N8          N  0.03580595  0.23525008  0.02576844    -0.03400
C9          C  0.04149941  0.27046752  0.02979979    -0.00800
C10         C  0.04802149  0.28635256  0.48723890    -0.23700
C11         C  0.04506012  0.26058358  0.45442313    -0.23900
C12         C  0.03845694  0.22956067  0.47830703    -0.00900
H13         H  0.05093739  0.31424437  0.48037092     0.12900
H14         H  0.04533488  0.26444946  0.41689822     0.12900
N15         N  0.72536483  0.03739850  0.48663639    -0.03400
C16         C  0.76090171  0.04104271  0.48279235    -0.00800
C17         C  0.77188625  0.05986027  0.02120901    -0.23700
C18         C  0.74343968  0.06670246  0.04858762    -0.23900
C19         C  0.71486838  0.05076689  0.02732106    -0.00900
H20         H  0.79881713  0.06792609  0.02790213     0.12900
H21         H  0.74367921  0.08065673  0.08146429     0.12900
N22         N  0.26057019  0.96979341  0.02745497    -0.03400
C23         C  0.22524439  0.96500437  0.03228942    -0.00800
C24         C  0.21092366  0.95141799  0.49895605    -0.23700
C25         C  0.23752804  0.94350736  0.46888116    -0.23900
C26         C  0.26794085  0.95758785  0.48781274    -0.00900
H27         H  0.18336900  0.94469864  0.49465734     0.12900
H28         H  0.23482763  0.93023236  0.43567274     0.12900
N29         N  0.53480874  0.73264527  0.47685042    -0.03400
C30         C  0.54549903  0.76685798  0.47413571    -0.00800
C31         C  0.56586991  0.77618257  0.01003363    -0.23700
C32         C  0.56188692  0.74970151  0.04205029    -0.23900
C33         C  0.54651967  0.72200274  0.01852257    -0.00900
H34         H  0.57380665  0.80295292  0.01772631     0.12900
H35         H  0.56729354  0.75122672  0.07916761     0.12900
N36         N  0.45560151  0.27000159  0.02543928    -0.03400
C37         C  0.44497761  0.23578933  0.02924825    -0.00800
C38         C  0.45202725  0.21804111  0.47679438    -0.23700
C39         C  0.45260062  0.24620357  0.44707398    -0.23900
C40         C  0.45939957  0.27538424  0.47416609    -0.00900
H41         H  0.44922773  0.19072341  0.46692382     0.12900
H42         H  0.45007945  0.24538827  0.40938062     0.12900
N43         N  0.23231339  0.53399645  0.01097510    -0.03400
C44         C  0.26793470  0.53789171  0.01324972    -0.00800
C45         C  0.28368733  0.53827267  0.47085126    -0.23700
C46         C  0.25543843  0.54677325  0.44375797    -0.23900
C47         C  0.22591462  0.53786193  0.46926968    -0.00900
H48         H  0.31110260  0.54161413  0.46152122     0.12900
H49         H  0.25621957  0.55702451  0.40838048     0.12900
N50         N  0.76634302  0.46791245  0.46876431    -0.03400
C51         C  0.73369374  0.45474978  0.45945656    -0.00800
C52         C  0.72428866  0.43375355  0.99757491    -0.23700
C53         C  0.75017494  0.43372519  0.03054988    -0.23900
C54         C  0.77692189  0.45500063  0.01358376    -0.00900
H55         H  0.69868292  0.42123270  0.00061127     0.12900
H56         H  0.74904184  0.42093799  0.06443799     0.12900
O57         O  0.47978698  0.52150850  0.16743834    -0.88300
C58         C  0.46517227  0.57048008  0.29261135     0.87800
Mg59       Mg  0.45986271  0.47028473  0.15158672     1.58100
O60         O  0.55048550  0.54043826  0.27428106    -0.88000
O61         O  0.53016144  0.55056812  0.16952233    -0.75300
C62         C  0.49789676  0.38222973  0.34414253     0.92800
O63         O  0.41428162  0.51507637  0.23701416    -0.75100
O64         O  0.48034482  0.37883064  0.30651231    -0.82600
Mg65       Mg  0.44349156  0.55826736  0.19561335     1.58000
C66         C  0.60456006  0.48480572  0.36983745     0.92700
O67         O  0.47019509  0.60134577  0.14961600    -0.80900
H68         H  0.59424276  0.53881730  0.23565389    -0.06200
C69         C  0.48386774  0.47877880  0.34730779     0.87700
O70         O  0.51403280  0.44704584  0.16886724    -0.75400
O71         O  0.47847167  0.56640704  0.25355189    -0.88200
O72         O  0.59104615  0.51498488  0.36307267    -0.81000
C73         C  0.54371383  0.62013831  0.34394964     0.92900
C74         C  0.49342441  0.62541123  0.15498600     0.92700
Mg75       Mg  0.54843474  0.44864044  0.30333377     1.58000
O76         O  0.52101752  0.40638580  0.34897732    -0.80900
O77         O  0.57860803  0.49124623  0.26125781    -0.75200
O78         O  0.53104391  0.62097240  0.30245951    -0.81000
O79         O  0.40325137  0.54909857  0.13888236    -0.82700
O80         O  0.46143226  0.38531252  0.19608518    -0.81000
C81         C  0.57530886  0.52438934  0.25660097     0.87100
O82         O  0.51432052  0.44041615  0.24505684    -0.88200
O83         O  0.51305361  0.48609381  0.33029272    -0.88300
O84         O  0.46207524  0.45803855  0.32720337    -0.75300
Mg85       Mg  0.53009677  0.58401469  0.23679229     1.58000
O86         O  0.55494984  0.59174349  0.36208057    -0.82700
H87         H  0.51546155  0.51836806  0.11638673    -0.06400
O88         O  0.44257570  0.46625400  0.22206390    -0.88000
H89         H  0.39861480  0.46691868  0.26029437    -0.06300
H90         H  0.55452117  0.42547517  0.20508124    -0.06400
C91         C  0.41754296  0.48185857  0.23995360     0.87100
C92         C  0.50840227  0.52977530  0.14954444     0.87700
C93         C  0.52858924  0.43681847  0.20656920     0.87800
H94         H  0.47637088  0.49092189  0.37981462    -0.06400
O95         O  0.48077963  0.56086139  0.32995101    -0.75400
Mg96       Mg  0.46227507  0.42329883  0.26088182     1.58000
H97         H  0.43937298  0.58202572  0.29502575    -0.06400
C98         C  0.38963374  0.52027446  0.12516813     0.92700
O99         O  0.44176394  0.41469736  0.13380024    -0.82700
C100        C  0.45057365  0.38604900  0.15367476     0.92800
O101        O  0.51042254  0.62893866  0.19304205    -0.82600
Mg102      Mg  0.53521555  0.53670923  0.34529954     1.58200
O103        O  0.40543576  0.49106715  0.12997099    -0.81000
O104        O  0.58706225  0.45688935  0.36153526    -0.82700
O105        O  0.50504802  0.02554642  0.17682044    -0.88300
C106        C  0.54703095  0.05267251  0.30330732     0.87800
Mg107      Mg  0.45044646  0.03030114  0.15985771     1.58100
O108        O  0.54346645  0.96205563  0.28471084    -0.88000
O109        O  0.54640653  0.98536452  0.18015865    -0.75300
C110        C  0.37525059  0.95960578  0.34696690     0.92800
O111        O  0.48019341  0.08524429  0.24724429    -0.75100
O112        O  0.36772331  0.97811849  0.31117040    -0.82600
Mg113      Mg  0.53008063  0.07069589  0.20656048     1.58000
C114        C  0.50487215  0.89259880  0.37857308     0.92700
O115        O  0.57879139  0.05873728  0.16226249    -0.80900
H116        H  0.55544174  0.92062269  0.24534121    -0.06200
C117        C  0.46340185  0.00479226  0.35608333     0.87700
O118        O  0.44304664  0.97110135  0.17468807    -0.75400
O119        O  0.54753237  0.03896498  0.26415165    -0.88200
O120        O  0.52901833  0.91607251  0.37468244    -0.81000
C121        C  0.61712271  0.99331034  0.35640578     0.92900
C122        C  0.60824205  0.04335901  0.16608403     0.92700
Mg123      Mg  0.45469804  0.93469658  0.30776546     1.58000
O124        O  0.40502001  0.94492402  0.35147586    -0.80900
O125        O  0.50476345  0.92075783  0.26741190    -0.75200
O126        O  0.61480765  0.00429451  0.31404203    -0.81000
O127        O  0.51124080  0.10726643  0.14923325    -0.82700
O128        O  0.37035548  0.00092106  0.20101076    -0.81000
C129        C  0.53568168  0.93384431  0.26564339     0.87100
O130        O  0.43737586  0.96671821  0.25074588    -0.88200
O131        O  0.47934916  0.97980861  0.33858073    -0.88300
O132        O  0.43767550  0.01967455  0.33549888    -0.75300
Mg133      Mg  0.57905976  0.99474936  0.24751139     1.58000
O134        O  0.59284057  0.97455485  0.37496350    -0.82700
H135        H  0.51169009  0.98999329  0.12643322    -0.06400
O136        O  0.44136173  0.04376545  0.23088085    -0.88000
H137        H  0.42968078  0.08541032  0.27008405    -0.06300
H138        H  0.43392719  0.92492790  0.20876807    -0.06400
C139        C  0.44929941  0.07207225  0.24967060     0.87100
C140        C  0.52069476  0.00027139  0.15957999     0.87700
C141        C  0.43766200  0.95305043  0.21159579     0.87800
H142        H  0.47214722  0.01483896  0.38947676    -0.06400
O143        O  0.54148447  0.03468211  0.34027713    -0.75400
Mg144      Mg  0.40558877  0.01053966  0.26764689     1.58000
H145        H  0.55069148  0.08080839  0.30608119    -0.06400
C146        C  0.47992550  0.11261605  0.13536236     0.92700
O147        O  0.39204284  0.03161951  0.14075578    -0.82700
C148        C  0.36801756  0.01239532  0.15894638     0.92800
O149        O  0.61669216  0.02630706  0.20274380    -0.82600
Mg150      Mg  0.53418863  0.97542733  0.35559418     1.58200
O151        O  0.45572251  0.08939281  0.14024279    -0.81000
O152        O  0.47376442  0.89799418  0.36411077    -0.82700
O153        O  0.01291407  0.98500489  0.18252110    -0.88300
C154        C  0.03038660  0.93949271  0.30939234     0.87800
Mg155      Mg  0.03122390  0.03668699  0.16414873     1.58100
O156        O  0.94303844  0.96398478  0.29164959    -0.88000
O157        O  0.96320782  0.95469646  0.18689935    -0.75300
C158        C  0.98606769  0.12755490  0.34817494     0.92800
O159        O  0.07714486  0.99605916  0.25326548    -0.75100
O160        O  0.99999005  0.13142451  0.30814825    -0.82600
Mg161      Mg  0.05071382  0.95047930  0.21310240     1.58000
C162        C  0.88696660  0.01757808  0.38496007     0.92700
O163        O  0.02681238  0.90476525  0.16947556    -0.80900
H164        H  0.89882322  0.96165761  0.25363202    -0.06200
C165        C  0.00537373  0.03300779  0.36039683     0.87700
O166        O  0.97559781  0.05789306  0.17827669    -0.75400
O167        O  0.01614270  0.94148365  0.27048013    -0.88200
O168        O  0.90385030  0.98888280  0.38147758    -0.81000
C169        C  0.95745877  0.88560103  0.36442593     0.92900
C170        C  0.00407329  0.88007243  0.17399043     0.92700
Mg171      Mg  0.93934025  0.05666878  0.31315033     1.58000
O172        O  0.96493944  0.10205195  0.35675046    -0.80900
O173        O  0.91209206  0.01098809  0.27442932    -0.75200
O174        O  0.96706501  0.88527809  0.32156580    -0.81000
O175        O  0.09099190  0.96015198  0.15666510    -0.82700
O176        O  0.02374420  0.12213417  0.20161313    -0.81000
C177        C  0.91710708  0.97793987  0.27308473     0.87100
O178        O  0.97341779  0.06511373  0.25413806    -0.88200
O179        O  0.97721432  0.02237508  0.34328027    -0.88300
O180        O  0.02542788  0.05488799  0.33907344    -0.75300
Mg181      Mg  0.96501857  0.92143689  0.25475159     1.58000
O182        O  0.94557783  0.91337619  0.38331764    -0.82700
H183        H  0.97616289  0.98665764  0.13237554    -0.06400
O184        O  0.04722979  0.04348521  0.23505682    -0.88000
H185        H  0.09011672  0.04504961  0.27574058    -0.06300
H186        H  0.93319385  0.07746788  0.21205006    -0.06400
C187        C  0.07234693  0.02912613  0.25497925     0.87100
C188        C  0.98415746  0.97575288  0.16568689     0.87700
C189        C  0.95964397  0.06749012  0.21501556     0.87800
H190        H  0.01343095  0.02303873  0.39419306    -0.06400
O191        O  0.01523099  0.94985134  0.34634573    -0.75400
Mg192      Mg  0.02372188  0.08659637  0.26941311     1.58000
H193        H  0.05686215  0.92951473  0.31187530    -0.06400
C194        C  0.10361454  0.98905379  0.14124316     0.92700
O195        O  0.04760353  0.09248987  0.14310852    -0.82700
C196        C  0.03607624  0.12102231  0.16006322     0.92800
O197        O  0.98503318  0.87707256  0.21032771    -0.82600
Mg198      Mg  0.95988273  0.97032500  0.36213590     1.58200
O199        O  0.08695385  0.01778353  0.14511147    -0.81000
O200        O  0.89986765  0.04674631  0.37066592    -0.82700
O201        O  0.98817488  0.48277450  0.16473760    -0.88300
C202        C  0.94633853  0.45663189  0.29173934     0.87800
Mg203      Mg  0.04256213  0.47659840  0.14748815     1.58100
O204        O  0.95025126  0.54758803  0.27241532    -0.88000
O205        O  0.94747311  0.52368069  0.16774173    -0.75300
C206        C  0.11770015  0.54639923  0.33319705     0.92800
O207        O  0.01263433  0.42372327  0.23743980    -0.75100
O208        O  0.12594368  0.53013973  0.29613305    -0.82600
Mg209      Mg  0.96275568  0.43854557  0.19637302     1.58000
C210        C  0.99088135  0.61528202  0.36772666     0.92700
O211        O  0.91394004  0.45034854  0.15172262    -0.80900
H212        H  0.93807035  0.58929850  0.23292147    -0.06200
C213        C  0.03059370  0.50333635  0.34257774     0.87700
O214        O  0.05081292  0.53608748  0.16002276    -0.75400
O215        O  0.94625587  0.47077191  0.25269497    -0.88200
O216        O  0.96643022  0.59206189  0.36481248    -0.81000
C217        C  0.87725136  0.51538787  0.34431967     0.92900
C218        C  0.88434822  0.46533553  0.15515800     0.92700
Mg219      Mg  0.03922674  0.57330755  0.29339148     1.58000
O220        O  0.08807327  0.56117136  0.33768315    -0.80900
O221        O  0.98919220  0.58833898  0.25340966    -0.75200
O222        O  0.87955204  0.50579665  0.30158161    -0.81000
O223        O  0.98040801  0.40125067  0.14103940    -0.82700
O224        O  0.12297977  0.50621541  0.18636963    -0.81000
C225        C  0.95804281  0.57576605  0.25285150     0.87100
O226        O  0.05593671  0.54111703  0.23611851    -0.88200
O227        O  0.01450353  0.52838643  0.32493515    -0.88300
O228        O  0.05626554  0.48860678  0.32208777    -0.75300
Mg229      Mg  0.91481677  0.51483704  0.23520680     1.58000
O230        O  0.90181836  0.53335097  0.36365174    -0.82700
H231        H  0.98185279  0.51863983  0.11403859    -0.06400
O232        O  0.05203586  0.46412189  0.21872488    -0.88000
H233        H  0.06335031  0.42300712  0.25982150    -0.06300
H234        H  0.05990647  0.58254334  0.19289049    -0.06400
C235        C  0.04378325  0.43632358  0.23893439     0.87100
C236        C  0.97285031  0.50839582  0.14729416     0.87700
C237        C  0.05592893  0.55447787  0.19652460     0.87800
H238        H  0.02210348  0.49317076  0.37611097    -0.06400
O239        O  0.95219268  0.47413789  0.32869541    -0.75400
Mg240      Mg  0.08800321  0.49742662  0.25387616     1.58000
H241        H  0.94216778  0.42853337  0.29438712    -0.06400
C242        C  0.01155817  0.39382404  0.12921990     0.92700
O243        O  0.10094676  0.47418610  0.12790662    -0.82700
C244        C  0.12511905  0.49383387  0.14488168     0.92800
O245        O  0.87674920  0.48298028  0.19137842    -0.82600
Mg246      Mg  0.96021018  0.53306045  0.34353119     1.58200
O247        O  0.03633456  0.41670512  0.13229164    -0.81000
O248        O  0.02102485  0.61003874  0.34996667    -0.82700
C249        C  0.83907686  0.44781553  0.03681563    -0.20200
C250        C  0.80692581  0.46442063  0.04386035    -0.06800
C251        C  0.80087451  0.48207348  0.08640309     0.14100
C252        C  0.82658614  0.48168955  0.12133406    -0.20300
C253        C  0.85847552  0.46385646  0.11569662    -0.06800
C254        C  0.86501547  0.44716620  0.07208968     0.14100
C255        C  0.89851191  0.42772413  0.06233496    -0.23600
H256        H  0.84304862  0.43357125  0.00456968     0.15400
H257        H  0.82110658  0.49519059  0.15373186     0.15400
C258        C  0.76699536  0.50081815  0.09688212    -0.23600
H259        H  0.89850627  0.41604011  0.02682977     0.05600
H260        H  0.90150574  0.40590686  0.08789976     0.08800
H261        H  0.92140580  0.44601020  0.06444546     0.08800
H262        H  0.74820402  0.50072442  0.06719267     0.08800
H263        H  0.75330025  0.49407723  0.62479605     0.08800
H264        H  0.77289838  0.52870138  0.10542860     0.05600
C265        C  0.80112044  0.46126753  0.39728250    -0.20200
C266        C  0.79116045  0.48222280  0.43508796    -0.06800
C267        C  0.80802081  0.51517247  0.44110798     0.14100
C268        C  0.83543119  0.52552885  0.41068556    -0.20300
C269        C  0.84598584  0.50430517  0.37311433    -0.06800
C270        C  0.82816232  0.47165551  0.36636614     0.14100
C271        C  0.83857418  0.44651537  0.32837342    -0.23600
H272        H  0.78839897  0.43586629  0.39305886     0.15400
H273        H  0.84856298  0.55059095  0.41633225     0.15400
C274        C  0.79715023  0.54025385  0.47865500    -0.23600
H275        H  0.82313813  0.42158291  0.33004905     0.05600
H276        H  0.86681154  0.43981794  0.33206395     0.08800
H277        H  0.83372444  0.45850456  0.29351427     0.08800
H278        H  0.77359877  0.53082016  0.49779168     0.08800
H279        H  0.79048054  0.56598620  0.46260130     0.08800
H280        H  0.81911396  0.54408386  0.50385002     0.05600
C281        C  0.69590987  0.50008840  0.42464080    -0.20200
C282        C  0.70945654  0.46598185  0.42207318    -0.06800
C283        C  0.69087953  0.44023549  0.39652905     0.14100
C284        C  0.65751871  0.44787208  0.37886591    -0.20300
C285        C  0.64184239  0.48085287  0.38564973    -0.06800
C286        C  0.66229012  0.50799099  0.40665477     0.14100
C287        C  0.64850218  0.54466566  0.41261436    -0.23600
H288        H  0.70897982  0.51853657  0.95018077     0.15400
H289        H  0.64326503  0.42717623  0.36077018     0.15400
C290        C  0.70484808  0.40368339  0.38972885    -0.23600
H291        H  0.66372604  0.55826806  0.93959056     0.05600
H292        H  0.62409660  0.54394438  0.43383105     0.08800
H293        H  0.64304121  0.55656877  0.37784455     0.08800
H294        H  0.73174412  0.40056576  0.40418840     0.08800
H295        H  0.70596842  0.39780789  0.35178056     0.08800
H296        H  0.68712376  0.38425205  0.40706466     0.05600
C297        C  0.15661516  0.51183966  0.38386727    -0.20200
C298        C  0.14183261  0.54460858  0.37359370    -0.06800
C299        C  0.14970472  0.57364411  0.40253643     0.14100
C300        C  0.17476006  0.56977397  0.43843471    -0.20300
C301        C  0.19110768  0.53741095  0.44667836    -0.06800
C302        C  0.18091392  0.50784012  0.42021100     0.14100
C303        C  0.19674584  0.47229592  0.42891119    -0.23600
H304        H  0.14942127  0.48923434  0.36282428     0.15400
H305        H  0.18334899  0.59258016  0.45813845     0.15400
C306        C  0.13353618  0.60907068  0.39392036    -0.23600
H307        H  0.18699820  0.45243592  0.40353667     0.05600
H308        H  0.19127144  0.47317888  0.96360919     0.08800
H309        H  0.22584193  0.47371043  0.42598868     0.08800
H310        H  0.10464341  0.60740991  0.39907987     0.08800
H311        H  0.13925299  0.61798532  0.35766533     0.08800
H312        H  0.14408705  0.62919092  0.41836521     0.05600
C313        C  0.18431316  0.54842083  0.06445607    -0.20200
C314        C  0.20812959  0.52346636  0.04790248    -0.06800
C315        C  0.20593606  0.48865394  0.06591291     0.14100
C316        C  0.17881821  0.47952566  0.09772688    -0.20300
C317        C  0.15500138  0.50464584  0.11400047    -0.06800
C318        C  0.15822770  0.53963959  0.09748176     0.14100
C319        C  0.13317411  0.56757744  0.11320817    -0.23600
H320        H  0.18602028  0.57503656  0.05088266     0.15400
H321        H  0.17640753  0.45270604  0.11040798     0.15400
C322        C  0.23180155  0.46092146  0.05216016    -0.23600
H323        H  0.13901864  0.59338905  0.09644905     0.05600
H324        H  0.13519324  0.57094706  0.15165113     0.08800
H325        H  0.10583391  0.55985963  0.10380129     0.08800
H326        H  0.25750483  0.46638039  0.06893739     0.08800
H327        H  0.23248935  0.45015389  0.51540398     0.08800
H328        H  0.22315077  0.43438516  0.06409650     0.05600
C329        C  0.34908933  0.49843611  0.06394409    -0.20200
C330        C  0.35473574  0.52065940  0.10215564    -0.06800
C331        C  0.32719592  0.54287783  0.11695311     0.14100
C332        C  0.29612814  0.54467902  0.09029790    -0.20300
C333        C  0.29222745  0.52503190  0.04939770    -0.06800
C334        C  0.31840191  0.50060705  0.03710991     0.14100
C335        C  0.31658133  0.46176138  0.50041109    -0.23600
H336        H  0.36958783  0.48060919  0.05325328     0.15400
H337        H  0.27608182  0.56350904  0.09929427     0.15400
C338        C  0.33033563  0.56488160  0.16046630    -0.23600
H339        H  0.31834828  0.43456235  0.51445024     0.05600
H340        H  0.33812754  0.46620951  0.47484926     0.08800
H341        H  0.29112753  0.46392986  0.48166699     0.08800
H342        H  0.35111968  0.58529760  0.15604400     0.08800
H343        H  0.33671940  0.54781981  0.19090153     0.08800
H344        H  0.30541073  0.57861531  0.16826488     0.05600
C345        C  0.49645188  0.16102429  0.08110477    -0.20200
C346        C  0.47183439  0.14674125  0.11252616    -0.06800
C347        C  0.44051037  0.16541593  0.12153536     0.14100
C348        C  0.43409762  0.19708604  0.09743724    -0.20300
C349        C  0.45780201  0.21012635  0.06403013    -0.06800
C350        C  0.48934854  0.19175173  0.05561692     0.14100
C351        C  0.51429643  0.20274842  0.01706761    -0.23600
H352        H  0.52044255  0.14681110  0.07424329     0.15400
H353        H  0.40945648  0.21060952  0.10254808     0.15400
C354        C  0.41373336  0.15219149  0.15638013    -0.23600
H355        H  0.53779463  0.18568724  0.01585998     0.05600
H356        H  0.52355011  0.23009412  0.02222313     0.08800
H357        H  0.51748464  0.19217910  0.48404290     0.08800
H358        H  0.42644624  0.14833813  0.19101199     0.08800
H359        H  0.40202324  0.12697429  0.14434402     0.08800
H360        H  0.39190247  0.17104864  0.16077307     0.05600
C361        C  0.50301564  0.31984006  0.44865445    -0.20200
C362        C  0.46753212  0.30969418  0.45248625    -0.06800
C363        C  0.44208588  0.32645014  0.42452661     0.14100
C364        C  0.45298793  0.35091789  0.39074175    -0.20300
C365        C  0.48876959  0.35897803  0.38400789    -0.06800
C366        C  0.51402633  0.34451540  0.41477493     0.14100
C367        C  0.55264892  0.35304545  0.41006035    -0.23600
H368        H  0.52251528  0.30628337  0.46943669     0.15400
H369        H  0.43344195  0.36310655  0.36842125     0.15400
C370        C  0.40348310  0.31763084  0.42922506    -0.23600
H371        H  0.56874094  0.33795231  0.43551317     0.05600
H372        H  0.55738036  0.38141309  0.41673924     0.08800
H373        H  0.56172026  0.34647429  0.37432330     0.08800
H374        H  0.39484897  0.32275593  0.46554764     0.08800
H375        H  0.39845460  0.28961211  0.42076549     0.08800
H376        H  0.38714056  0.33378326  0.40527338     0.05600
C377        C  0.42222242  0.31379701  0.06904298    -0.20200
C378        C  0.45384884  0.29566179  0.06263987    -0.06800
C379        C  0.48341751  0.30540362  0.08981172     0.14100
C380        C  0.48100836  0.33374609  0.12128056    -0.20300
C381        C  0.44992809  0.35319384  0.12550051    -0.06800
C382        C  0.41998465  0.34263073  0.09947056     0.14100
C383        C  0.38553560  0.36153958  0.10384072    -0.23600
H384        H  0.39940334  0.30588706  0.04876141     0.15400
H385        H  0.50402006  0.34180587  0.14113180     0.15400
C386        C  0.51768601  0.28662311  0.08495885    -0.23600
H387        H  0.36448385  0.34882748  0.08265138     0.05600
H388        H  0.38841938  0.38908835  0.09139488     0.08800
H389        H  0.37699758  0.36136194  0.14093808     0.08800
H390        H  0.52714364  0.28887603  0.04844845     0.08800
H391        H  0.51403490  0.25860081  0.09478855     0.08800
H392        H  0.53831599  0.29793495  0.10815426     0.05600
C393        C  0.49912015  0.80426484  0.44252919    -0.20200
C394        C  0.53381396  0.79261172  0.43884838    -0.06800
C395        C  0.55841540  0.81285630  0.41331339     0.14100
C396        C  0.54805926  0.84500746  0.39342084    -0.20300
C397        C  0.51361413  0.85760214  0.39880535    -0.06800
C398        C  0.48852241  0.83626745  0.42269738     0.14100
C399        C  0.45108482  0.84766905  0.43011320    -0.23600
H400        H  0.48861043  0.78966252  0.97073764     0.15400
H401        H  0.56720615  0.86068380  0.37425459     0.15400
C402        C  0.59586721  0.80094645  0.40848638    -0.23600
H403        H  0.44507561  0.83159082  0.96620575     0.05600
H404        H  0.43714619  0.84925882  0.39604413     0.08800
H405        H  0.45076895  0.87360271  0.44770919     0.08800
H406        H  0.59624856  0.77478004  0.39149923     0.08800
H407        H  0.60842948  0.79895979  0.44347512     0.08800
H408        H  0.61172811  0.81955646  0.38689943     0.05600
C409        C  0.49595264  0.68897990  0.05143536    -0.20200
C410        C  0.53244840  0.69100174  0.04369724    -0.06800
C411        C  0.55507349  0.66929129  0.06993452     0.14100
C412        C  0.54096271  0.64748655  0.10475230    -0.20300
C413        C  0.50484477  0.64704004  0.11468120    -0.06800
C414        C  0.48182249  0.66725007  0.08693157     0.14100
C415        C  0.44297558  0.66784588  0.09685680    -0.23600
H416        H  0.47878915  0.70650033  0.03226425     0.15400
H417        H  0.55858556  0.63129559  0.12533867     0.15400
C418        C  0.59440260  0.66943235  0.06335095    -0.23600
H419        H  0.42898892  0.68615529  0.07299278     0.05600
H420        H  0.43853139  0.67654669  0.13334578     0.08800
H421        H  0.43144897  0.64117405  0.09215562     0.08800
H422        H  0.60431497  0.68092201  0.59467366     0.08800
H423        H  0.59817246  0.69220959  0.53414862     0.08800
H424        H  0.60312427  0.64253032  0.05446957     0.05600
C425        C  0.56974332  0.69146629  0.43100906    -0.20200
C426        C  0.53728164  0.70763345  0.43907264    -0.06800
C427        C  0.50777486  0.69702582  0.41241366     0.14100
C428        C  0.51116576  0.66975736  0.37953710    -0.20300
C429        C  0.54323009  0.65226932  0.37339676    -0.06800
C430        C  0.57302835  0.66369981  0.39907491     0.14100
C431        C  0.60839117  0.64686434  0.39274604    -0.23600
H432        H  0.59245344  0.70009727  0.45095420     0.15400
H433        H  0.48826503  0.66099414  0.35997985     0.15400
C434        C  0.47264353  0.71391439  0.41912326    -0.23600
H435        H  0.62911477  0.66017741  0.41385027     0.05600
H436        H  0.61622547  0.64843819  0.35541347     0.08800
H437        H  0.60726450  0.61893053  0.40402026     0.08800
H438        H  0.47435423  0.74194444  0.40876574     0.08800
H439        H  0.46977999  0.71479331  0.94786673     0.08800
H440        H  0.45194685  0.70128945  0.39725238     0.05600
C441        C  0.16313620  0.96329948  0.13345776    -0.20200
C442        C  0.13876448  0.98870759  0.11859150    -0.06800
C443        C  0.14785608  0.01135027  0.08093466     0.14100
C444        C  0.17925526  0.00562422  0.05659693    -0.20300
C445        C  0.20212487  0.97844731  0.06927358    -0.06800
C446        C  0.19467007  0.95791775  0.10919275     0.14100
C447        C  0.21892263  0.92894618  0.12439869    -0.23600
H448        H  0.15682998  0.94655109  0.16313543     0.15400
H449        H  0.18886224  0.02855925  0.53423302     0.15400
C450        C  0.12371364  0.03992671  0.06389452    -0.23600
H451        H  0.20889553  0.91493985  0.15591526     0.05600
H452        H  0.24516208  0.94023818  0.13299497     0.08800
H453        H  0.22169316  0.90944686  0.09595284     0.08800
H454        H  0.12016374  0.05975165  0.09176014     0.08800
H455        H  0.09781858  0.02843861  0.05387742     0.08800
H456        H  0.14115542  0.06430359  0.54654027     0.05600
C457        C  0.31838442  0.92890819  0.44968066    -0.20200
C458        C  0.30049299  0.96003576  0.45986996    -0.06800
C459        C  0.30773397  0.99060338  0.43329899     0.14100
C460        C  0.33213349  0.98926845  0.39682853    -0.20300
C461        C  0.34972267  0.95813260  0.38599495    -0.06800
C462        C  0.34326436  0.92763765  0.41335458     0.14100
C463        C  0.36103197  0.89338580  0.40294131    -0.23600
H464        H  0.31172309  0.90515673  0.46898145     0.15400
H465        H  0.33751322  0.01285409  0.37649356     0.15400
C466        C  0.28882140  0.02445223  0.44208983    -0.23600
H467        H  0.35137388  0.87181160  0.42604847     0.05600
H468        H  0.38978189  0.89615393  0.40862606     0.08800
H469        H  0.35579166  0.88573618  0.36614106     0.08800
H470        H  0.29605120  0.03406692  0.47724051     0.08800
H471        H  0.25992018  0.02029764  0.43973380     0.08800
H472        H  0.29629556  0.04523461  0.41643901     0.05600
C473        C  0.31414479  0.02572376  0.11150694    -0.20200
C474        C  0.33807321  0.00092483  0.12885328    -0.06800
C475        C  0.33530152  0.96575940  0.11340298     0.14100
C476        C  0.30932965  0.95644724  0.08050534    -0.20300
C477        C  0.28565432  0.98119331  0.06259661    -0.06800
C478        C  0.28782030  0.01627433  0.07884199     0.14100
C479        C  0.26380083  0.04461185  0.06130578    -0.23600
H480        H  0.31641842  0.05279895  0.12284074     0.15400
H481        H  0.30752737  0.92960345  0.06819316     0.15400
C482        C  0.36066399  0.93821707  0.13013690    -0.23600
H483        H  0.24762271  0.05440062  0.09064260     0.05600
H484        H  0.24606383  0.03533989  0.03315226     0.08800
H485        H  0.27970122  0.06678291  0.04689846     0.08800
H486        H  0.35880165  0.93521985  0.16868126     0.08800
H487        H  0.38789903  0.94609039  0.12051475     0.08800
H488        H  0.35501721  0.91219076  0.11421899     0.05600
C489        C  0.80693530  0.99968107  0.46193100    -0.20200
C490        C  0.78446916  0.02661065  0.44706845    -0.06800
C491        C  0.79379584  0.04708667  0.40778508     0.14100
C492        C  0.82680677  0.04234739  0.38700693    -0.20300
C493        C  0.85077642  0.01751090  0.40457289    -0.06800
C494        C  0.83983067  0.99456550  0.44098652     0.14100
C495        C  0.86339824  0.96634517  0.46031463    -0.23600
H496        H  0.79995101  0.98455118  0.49286207     0.15400
H497        H  0.83445853  0.05910394  0.35789987     0.15400
C498        C  0.76983067  0.07536320  0.38963712    -0.23600
H499        H  0.85101305  0.95208249  0.49011859     0.05600
H500        H  0.88844993  0.97822588  0.47295572     0.08800
H501        H  0.86889887  0.94671093  0.43280752     0.08800
H502        H  0.76290568  0.09366423  0.91837425     0.08800
H503        H  0.74453137  0.06332743  0.37829472     0.08800
H504        H  0.77970502  0.08805318  0.86024236     0.05600
C505        C  0.67248965  0.01539450  0.07231419    -0.20200
C506        C  0.68080523  0.04777162  0.05143527    -0.06800
C507        C  0.66256545  0.07815697  0.06518790     0.14100
C508        C  0.63841515  0.07591655  0.10205883    -0.20300
C509        C  0.63253079  0.04410579  0.12590412    -0.06800
C510        C  0.64852999  0.01309088  0.10940584     0.14100
C511        C  0.64047074  0.97747576  0.13051163    -0.23600
H512        H  0.68681148  0.99225992  0.06213615     0.15400
H513        H  0.62510528  0.09944350  0.11336196     0.15400
C514        C  0.66889230  0.11347149  0.04247086    -0.23600
H515        H  0.65387110  0.95610151  0.11143471     0.05600
H516        H  0.61171800  0.97216370  0.12893224     0.08800
H517        H  0.64956230  0.97644359  0.16737348     0.08800
H518        H  0.68767279  0.11222512  0.01293821     0.08800
H519        H  0.67944390  0.13220425  0.06876474     0.08800
H520        H  0.64367143  0.12363955  0.02848645     0.05600
C521        C  0.68029858  0.05052132  0.42769568    -0.20200
C522        C  0.70063367  0.02545577  0.45128525    -0.06800
C523        C  0.69474398  0.98942471  0.44165867     0.14100
C524        C  0.66777209  0.97942800  0.41005475    -0.20300
C525        C  0.64749965  0.00463981  0.38627197    -0.06800
C526        C  0.65427694  0.04069084  0.39500298     0.14100
C527        C  0.63293527  0.06894869  0.37156636    -0.23600
H528        H  0.68479092  0.07807514  0.43533471     0.15400
H529        H  0.66253472  0.95180033  0.40374175     0.15400
C530        C  0.71655024  0.96148528  0.46481367    -0.23600
H531        H  0.64098093  0.09562178  0.38335061     0.05600
H532        H  0.60466915  0.06513858  0.38002193     0.08800
H533        H  0.63657319  0.06788357  0.33311533     0.08800
H534        H  0.71577028  0.96400122  0.50334671     0.08800
H535        H  0.74412564  0.96392835  0.45292336     0.08800
H536        H  0.70704781  0.93468373  0.45566404     0.05600
C537        C  0.99244352  0.18599341  0.45656205    -0.20200
C538        C  0.02764003  0.19736087  0.45325716    -0.06800
C539        C  0.04916674  0.18374800  0.41770050     0.14100
C540        C  0.03450799  0.16080690  0.38482698    -0.20300
C541        C  0.99878710  0.15095190  0.38611314    -0.06800
C542        C  0.97767292  0.16284837  0.42334679     0.14100
C543        C  0.93930929  0.15299358  0.42672372    -0.23600
H544        H  0.97585358  0.19710486  0.48332804     0.15400
H545        H  0.05117864  0.15071571  0.35740284     0.15400
C546        C  0.08766161  0.19351141  0.41391865    -0.23600
H547        H  0.92643395  0.16611191  0.45664972     0.05600
H548        H  0.93637400  0.12419016  0.43192962     0.08800
H549        H  0.92544386  0.16099685  0.39419804     0.08800
H550        H  0.10132202  0.18673671  0.44700196     0.08800
H551        H  0.09111357  0.22196646  0.40666065     0.08800
H552        H  0.10073638  0.17916291  0.38518269     0.05600
C553        C  0.00726954  0.20237071  0.09039707    -0.20200
C554        C  0.03698638  0.20891181  0.06255718    -0.06800
C555        C  0.06735746  0.18840864  0.07007140     0.14100
C556        C  0.06647432  0.16048050  0.10256484    -0.20300
C557        C  0.03652612  0.15325169  0.12976541    -0.06800
C558        C  0.00681540  0.17519279  0.12434910     0.14100
C559        C  0.97400197  0.16914000  0.15278223    -0.23600
H560        H  0.98405855  0.21806593  0.08476463     0.15400
H561        H  0.08954166  0.14423227  0.10680200     0.14200
C562        C  0.10136934  0.19560444  0.04486618    -0.23600
H563        H  0.95292712  0.18779632  0.14293937     0.05600
H564        H  0.97993259  0.17293549  0.19045217     0.08800
H565        H  0.96383200  0.14202063  0.14714195     0.08800
H566        H  0.09987771  0.21841292  0.02070214     0.08800
H567        H  0.10891077  0.17199342  0.02478442     0.08800
H568        H  0.12238915  0.20139744  0.07081865     0.05600
C569        C  0.00234938  0.29906577  0.08484219    -0.20200
C570        C  0.03696050  0.29247499  0.07141197    -0.06800
C571        C  0.06371214  0.31671213  0.08347764     0.14100
C572        C  0.05474499  0.34884213  0.10385162    -0.20300
C573        C  0.01943510  0.35757128  0.11233525    -0.06800
C574        C  0.99304066  0.33118574  0.10511039     0.14100
C575        C  0.95470147  0.33666558  0.11608510    -0.23600
H576        H  0.98182630  0.28065221  0.07461152     0.15400
H577        H  0.07547470  0.36778358  0.11125698     0.15400
C578        C  0.10162932  0.30931709  0.07227192    -0.23600
H579        H  0.93840028  0.31300889  0.10821726     0.05600
H580        H  0.94431363  0.35858531  0.09456241     0.08800
H581        H  0.95147338  0.34228047  0.15386997     0.08800
H582        H  0.10526698  0.30692839  0.03394857     0.08800
H583        H  0.10951909  0.28435058  0.08944141     0.08800
H584        H  0.11944257  0.33059701  0.08484347     0.05600
C585        C  0.95955362  0.82445587  0.08019093    -0.20200
C586        C  0.98810967  0.80607415  0.06222351    -0.06800
C587        C  0.02240002  0.81363675  0.07911482     0.14100
C588        C  0.02709698  0.83855462  0.11471969    -0.20300
C589        C  0.99824041  0.85524701  0.13491934    -0.06800
C590        C  0.96410072  0.84883951  0.11647004     0.14100
C591        C  0.93230012  0.86767158  0.13471614    -0.23600
H592        H  0.93329365  0.81811209  0.06773895     0.15400
H593        H  0.05332734  0.84392391  0.12805237     0.15400
C594        C  0.05442221  0.79492548  0.06145653    -0.23600
H595        H  0.90815007  0.86069650  0.11471267     0.05600
H596        H  0.93644547  0.89652348  0.13168588     0.08800
H597        H  0.92759269  0.86041093  0.17181221     0.08800
H598        H  0.04983062  0.78929248  0.52158641     0.08800
H599        H  0.06682206  0.78013362  0.09063685     0.08800
H600        H  0.07364894  0.81451695  0.04762785     0.05600
C601        C  0.00129320  0.81226859  0.43465252    -0.20200
C602        C  0.97245473  0.79579783  0.45629207    -0.06800
C603        C  0.93825863  0.80801037  0.44615015     0.14100
C604        C  0.93371311  0.83693498  0.41556975    -0.20300
C605        C  0.96264557  0.85357000  0.39402322    -0.06800
C606        C  0.99684119  0.84079531  0.40357697     0.14100
C607        C  0.02893699  0.85835436  0.38282786    -0.23600
H608        H  0.02749757  0.80334761  0.44303546     0.15400
H609        H  0.90752835  0.84671342  0.40864871     0.15400
C610        C  0.90664999  0.79068327  0.46826933    -0.23600
H611        H  0.05358832  0.84566619  0.39476308     0.05600
H612        H  0.03004820  0.88633741  0.39354747     0.08800
H613        H  0.02792142  0.85678328  0.34411360     0.08800
H614        H  0.90853258  0.79234024  0.50686968     0.08800
H615        H  0.90532886  0.76262882  0.45801297     0.08800
H616        H  0.88180945  0.80337004  0.45708123     0.05600
C617        C  0.94904623  0.69291133  0.43245660    -0.20200
C618        C  0.97910318  0.71228142  0.44548595    -0.06800
C619        C  0.01226260  0.70127370  0.42934016     0.14100
C620        C  0.01475384  0.67044881  0.40299252    -0.20300
C621        C  0.98505267  0.64940464  0.39255652    -0.06800
C622        C  0.95143125  0.66179480  0.40605942     0.14100
C623        C  0.91789430  0.64236540  0.39392946    -0.23600
H624        H  0.92374669  0.70072242  0.44603301     0.15400
H625        H  0.04069555  0.66206301  0.39246237     0.15400
C626        C  0.03912090  0.72739857  0.92989682    -0.23600
H627        H  0.89426719  0.65681963  0.40552401     0.05600
H628        H  0.91730081  0.61627779  0.41149555     0.08800
H629        H  0.91592255  0.63910074  0.35544670     0.08800
H630        H  0.05868787  0.71012007  0.94713581     0.08800
H631        H  0.03441491  0.74984181  0.95325915     0.08800
H632        H  0.05046480  0.73784462  0.89682444     0.05600
N633        N  0.97461560  0.76933202  0.99014665    -0.03400
C634        C  0.97145863  0.73399221  0.98350019    -0.00800
C635        C  0.98166195  0.71812159  0.53164357    -0.23700
C636        C  0.98613049  0.74465447  0.56325818    -0.23900
C637        C  0.98416581  0.77570787  0.53835364    -0.00900
H638        H  0.98349131  0.69024769  0.53894951     0.12900
H639        H  0.99128264  0.74169708  0.60030788     0.12900
N640        N  0.03662632  0.23541284  0.52512172    -0.03400
C641        C  0.04278629  0.27042557  0.53018861    -0.00800
C642        C  0.04359254  0.28625621  0.98627729    -0.23700
C643        C  0.03928191  0.26027745  0.95412711    -0.23900
C644        C  0.03497687  0.22930180  0.97890584    -0.00900
H645        H  0.04561861  0.31414408  0.97886818     0.12900
H646        H  0.03753310  0.26380329  0.91660487     0.12900
N647        N  0.72454942  0.03375524  0.98779769    -0.03400
C648        C  0.75971008  0.03994484  0.98422332    -0.00800
C649        C  0.77461891  0.05991926  0.51977356    -0.23700
C650        C  0.74694908  0.06860647  0.54751521    -0.23900
C651        C  0.71707088  0.05493507  0.52650969    -0.00900
H652        H  0.80206675  0.06607633  0.52623871     0.12900
H653        H  0.74856957  0.08209165  0.58068660     0.12900
N654        N  0.26119628  0.97420763  0.52884241    -0.03400
C655        C  0.22596577  0.97001340  0.53530780    -0.00800
C656        C  0.21141291  0.94687635  0.99468426    -0.23700
C657        C  0.23888882  0.93987375  0.96557621    -0.23900
C658        C  0.26859475  0.95399549  0.98631452    -0.00900
H659        H  0.18402630  0.94021250  0.98866273     0.12900
H660        H  0.23720445  0.92738053  0.93172648     0.12900
N661        N  0.54069548  0.73017249  0.97286439    -0.03400
C662        C  0.55255423  0.76386099  0.96809483    -0.00800
C663        C  0.55597410  0.77897158  0.51751813    -0.23700
C664        C  0.55184195  0.75166006  0.54824794    -0.23900
C665        C  0.53905420  0.72374478  0.52260620    -0.00900
H666        H  0.56278388  0.80579746  0.52653779     0.12900
H667        H  0.55601499  0.75246617  0.58568130     0.12900
N668        N  0.46377580  0.26639532  0.51984264    -0.03400
C669        C  0.45913332  0.23089252  0.52093253    -0.00800
C670        C  0.43189732  0.22361258  0.98714623    -0.23700
C671        C  0.43484932  0.25068372  0.95586179    -0.23900
C672        C  0.44917979  0.27862665  0.98005059    -0.00900
H673        H  0.42452336  0.19677831  0.97894871     0.12900
H674        H  0.42950661  0.24944794  0.91870510     0.12900
N675        N  0.23466914  0.52389529  0.51160552    -0.03400
C676        C  0.27048966  0.52429356  0.51198312    -0.00800
C677        C  0.28075955  0.55556659  0.97448484    -0.23700
C678        C  0.25249093  0.56302734  0.94691661    -0.23900
C679        C  0.22329338  0.54975884  0.96975409    -0.00900
H680        H  0.30801284  0.56168960  0.96676405     0.12900
H681        H  0.25320762  0.57534890  0.91270979     0.12900
N682        N  0.76877766  0.46823007  0.97046918    -0.03400
C683        C  0.73612691  0.45483267  0.96134158    -0.00800
C684        C  0.72126907  0.43482660  0.49656213    -0.23700
C685        C  0.74685564  0.43545101  0.53009444    -0.23900
C686        C  0.77400714  0.45585105  0.51245739    -0.00900
H687        H  0.69542251  0.42286457  0.49987423     0.12900
H688        H  0.74529997  0.42363371  0.56456117     0.12900
O689        O  0.48275671  0.51447873  0.66714052    -0.88300
C690        C  0.46666327  0.56394651  0.79144928     0.87800
Mg691      Mg  0.46329074  0.46292519  0.65142376     1.58100
O692        O  0.55247114  0.53456290  0.77460056    -0.88000
O693        O  0.53288516  0.54391220  0.66956544    -0.75300
C694        C  0.50131422  0.37560768  0.84403228     0.92800
O695        O  0.41745833  0.50740554  0.73639614    -0.75100
O696        O  0.48497508  0.37130714  0.80563054    -0.82600
Mg697      Mg  0.44594505  0.55103631  0.69471323     1.58000
C698        C  0.60638135  0.48044618  0.87092628     0.92700
O699        O  0.47186276  0.59496441  0.64908055    -0.80900
H700        H  0.59641424  0.53331167  0.73632483    -0.06200
C701        C  0.48634815  0.47142206  0.84701976     0.87700
O702        O  0.51769780  0.44013473  0.66878649    -0.75400
O703        O  0.48050383  0.56020312  0.75267414    -0.88200
O704        O  0.59190609  0.51013320  0.86418886    -0.81000
C705        C  0.54509836  0.61473621  0.84346575     0.92900
C706        C  0.49497613  0.61922840  0.65413411     0.92700
Mg707      Mg  0.55156693  0.44251887  0.80362520     1.58000
O708        O  0.52416875  0.39999473  0.84941996    -0.80900
O709        O  0.58112839  0.48557888  0.76169886    -0.75200
O710        O  0.53332243  0.61560205  0.80148600    -0.81000
O711        O  0.40591645  0.54107237  0.63776908    -0.82700
O712        O  0.46592791  0.37783349  0.69535618    -0.81000
C713        C  0.57753720  0.51870726  0.75714904     0.87100
O714        O  0.51789986  0.43347790  0.74497869    -0.88200
O715        O  0.51527266  0.47952673  0.82984465    -0.88300
O716        O  0.46508452  0.45010371  0.82699846    -0.75300
Mg717      Mg  0.53232817  0.57783059  0.73635159     1.58000
O718        O  0.55465034  0.58605955  0.86257680    -0.82700
H719        H  0.51880490  0.51132996  0.61657094    -0.06400
O720        O  0.44597923  0.45861108  0.72182933    -0.88000
H721        H  0.40225694  0.45933518  0.76053157    -0.06300
H722        H  0.55831484  0.41889415  0.70512690    -0.06400
C723        C  0.42098138  0.47422738  0.73980168     0.87100
C724        C  0.51142176  0.52287017  0.64951773     0.87700
C725        C  0.53228601  0.43002457  0.70653745     0.87800
H726        H  0.47864171  0.48328557  0.87962155    -0.06400
O727        O  0.48171359  0.55400932  0.82900725    -0.75400
Mg728      Mg  0.46607633  0.41564014  0.76041103     1.58000
H729        H  0.44074210  0.57527932  0.79336276    -0.06400
C730        C  0.39250758  0.51198726  0.62467304     0.92700
O731        O  0.44557767  0.40722200  0.63349994    -0.82700
C732        C  0.45492739  0.37862155  0.65301147     0.92800
O733        O  0.51311827  0.62222150  0.69136000    -0.82600
Mg734      Mg  0.53617577  0.53065750  0.84529815     1.58200
O735        O  0.40866305  0.48303538  0.62999091    -0.81000
O736        O  0.59004879  0.45192120  0.86196884    -0.82700
O737        O  0.50738395  0.02471710  0.67792231    -0.88300
C738        C  0.55027429  0.04923662  0.80439923     0.87800
Mg739      Mg  0.45264553  0.03008128  0.66160303     1.58100
O740        O  0.54537140  0.95913220  0.78253929    -0.88000
O741        O  0.54850600  0.98428935  0.67857828    -0.75300
C742        C  0.37757339  0.95756076  0.84804469     0.92800
O743        O  0.48316705  0.08262973  0.75126121    -0.75100
O744        O  0.36982573  0.97599362  0.81222384    -0.82600
Mg745      Mg  0.53274531  0.06900416  0.70951330     1.58000
C746        C  0.50696826  0.88889741  0.87565796     0.92700
O747        O  0.58154464  0.05905869  0.66444306    -0.80900
H748        H  0.55631313  0.91823574  0.74163030    -0.06200
C749        C  0.46603383  0.00130833  0.85652939     0.87700
O750        O  0.44492779  0.97069561  0.67487291    -0.75400
O751        O  0.55047466  0.03610849  0.76491244    -0.88200
O752        O  0.53111431  0.91225510  0.87132228    -0.81000
C753        C  0.61930559  0.98891217  0.85459305     0.92900
C754        C  0.61094755  0.04346528  0.66670898     0.92700
Mg755      Mg  0.45637034  0.93206647  0.80688311     1.58000
O756        O  0.40726800  0.94260391  0.85190697    -0.80900
O757        O  0.50601246  0.91837290  0.76520868    -0.75200
O758        O  0.61709633  0.00032384  0.81244950    -0.81000
O759        O  0.51382152  0.10616053  0.65445753    -0.82700
O760        O  0.37224347  0.00059933  0.70225185    -0.81000
C761        C  0.53699969  0.93130249  0.76285329     0.87100
O762        O  0.43893340  0.96492446  0.75076158    -0.88200
O763        O  0.48170505  0.97663810  0.83786782    -0.88300
O764        O  0.44016947  0.01664747  0.83690116    -0.75300
Mg765      Mg  0.58137740  0.99202502  0.74594367     1.58000
O766        O  0.59512075  0.96981018  0.87269815    -0.82700
H767        H  0.51353472  0.99075755  0.62550948    -0.06400
O768        O  0.44363355  0.04229940  0.73305105    -0.88000
H769        H  0.43276625  0.08294268  0.77443389    -0.06300
H770        H  0.43543729  0.92396002  0.70737662    -0.06400
C771        C  0.45208401  0.06992008  0.75316502     0.87100
C772        C  0.52279795  0.99995728  0.65909235     0.87700
C773        C  0.43929507  0.95200019  0.71115674     0.87800
H774        H  0.47510833  0.01063907  0.89013810    -0.06400
O775        O  0.54434220  0.03082711  0.84084218    -0.75400
Mg776      Mg  0.40771564  0.00879065  0.76907461     1.58000
H777        H  0.55438455  0.07726638  0.80789597    -0.06400
C778        C  0.48310631  0.11199750  0.63893650     0.92700
O779        O  0.39430093  0.03205076  0.64288095    -0.82700
C780        C  0.37006414  0.01281030  0.66051642     0.92800
O781        O  0.61924044  0.02404372  0.70134317    -0.82600
Mg782      Mg  0.53654963  0.97153830  0.85399186     1.58200
O783        O  0.45818368  0.08944815  0.64293737    -0.81000
O784        O  0.47557460  0.89440267  0.86235859    -0.82700
O785        O  0.01383463  0.98778222  0.68446499    -0.88300
C786        C  0.03051338  0.94161140  0.81073334     0.87800
Mg787      Mg  0.03212457  0.03931509  0.66659137     1.58100
O788        O  0.94289850  0.96508734  0.79217259    -0.88000
O789        O  0.96429568  0.95709052  0.68771020    -0.75300
C790        C  0.98246171  0.12854392  0.84873485     0.92800
O791        O  0.07711000  0.99896040  0.75649550    -0.75100
O792        O  0.99581455  0.13311670  0.80849627    -0.82600
Mg793      Mg  0.05156111  0.95346964  0.71496932     1.58000
C794        C  0.88616181  0.01790996  0.88586728     0.92700
O795        O  0.02791544  0.90865091  0.66959714    -0.80900
H796        H  0.89864187  0.96168419  0.75437829    -0.06200
C797        C  0.00380933  0.03499463  0.86189290     0.87700
O798        O  0.97588747  0.05977250  0.67898767    -0.75400
O799        O  0.01655795  0.94381052  0.77167872    -0.88200
O800        O  0.90326859  0.98937233  0.88238629    -0.81000
C801        C  0.95742300  0.88709224  0.86428602     0.92900
C802        C  0.00542004  0.88370133  0.67365964     0.92700
Mg803      Mg  0.93776560  0.05719196  0.81346563     1.58000
O804        O  0.96218007  0.10246957  0.85732831    -0.80900
O805        O  0.91105789  0.01133302  0.77471493    -0.75200
O806        O  0.96758869  0.88673396  0.82164120    -0.81000
O807        O  0.09246492  0.96370866  0.65943347    -0.82700
O808        O  0.02182126  0.12412306  0.70256264    -0.81000
C809        C  0.91664905  0.97840344  0.77362964     0.87100
O810        O  0.97232127  0.06588302  0.75485650    -0.88200
O811        O  0.97611865  0.02370671  0.84416459    -0.88300
O812        O  0.02352884  0.05743697  0.84103280    -0.75300
Mg813      Mg  0.96589644  0.92326909  0.75508767     1.58000
O814        O  0.94539333  0.91478432  0.88310275    -0.82700
H815        H  0.97741927  0.98966984  0.63390441    -0.06400
O816        O  0.04701441  0.04622189  0.73782327    -0.88000
H817        H  0.08907592  0.04792817  0.78003856    -0.06300
H818        H  0.93248819  0.07797961  0.71196939    -0.06400
C819        C  0.07188010  0.03197041  0.75849529     0.87100
C820        C  0.98525137  0.97850108  0.66712935     0.87700
C821        C  0.95907591  0.06845803  0.71545799     0.87800
H822        H  0.01169898  0.02521074  0.89585655    -0.06400
O823        O  0.01499617  0.95162749  0.84756232    -0.75400
Mg824      Mg  0.02179206  0.08888400  0.77104257     1.58000
H825        H  0.05703207  0.93178000  0.81346270    -0.06400
C826        C  0.10534023  0.99285103  0.64525926     0.92700
O827        O  0.04857427  0.09478641  0.64606102    -0.82700
C828        C  0.03554706  0.12300183  0.66175620     0.92800
O829        O  0.98719260  0.87967042  0.71056467    -0.82600
Mg830      Mg  0.95938979  0.97155299  0.86276288     1.58200
O831        O  0.08844091  0.02137873  0.64937698    -0.81000
O832        O  0.89850946  0.04707205  0.87085159    -0.82700
O833        O  0.98674067  0.48338771  0.66218866    -0.88300
C834        C  0.94466104  0.45908632  0.78917398     0.87800
Mg835      Mg  0.04123692  0.47615466  0.64581177     1.58100
O836        O  0.94885872  0.54961643  0.76764945    -0.88000
O837        O  0.94626608  0.52460389  0.66397300    -0.75300
C838        C  0.11670106  0.55031571  0.82928636     0.92800
O839        O  0.01005203  0.42501153  0.73633919    -0.75100
O840        O  0.12462092  0.53187880  0.79388485    -0.82600
Mg841      Mg  0.96050379  0.43978270  0.69426201     1.58000
C842        C  0.98840148  0.61908074  0.85963132     0.92700
O843        O  0.91204696  0.45211499  0.64870762    -0.80900
H844        H  0.93697935  0.59029966  0.72615938    -0.06200
C845        C  0.02925383  0.50717122  0.84005029     0.87700
O846        O  0.05045392  0.53572041  0.65637411    -0.75400
O847        O  0.94419428  0.47273548  0.74982040    -0.88200
O848        O  0.96478145  0.59503359  0.85786501    -0.81000
C849        C  0.87586420  0.51847355  0.84093263     0.92900
C850        C  0.88257875  0.46742552  0.65195318     0.92700
Mg851      Mg  0.03797811  0.57599902  0.78767282     1.58000
O852        O  0.08716375  0.56555044  0.83247754    -0.80900
O853        O  0.98806740  0.58960885  0.74671000    -0.75200
O854        O  0.87777289  0.50867077  0.79821740    -0.81000
O855        O  0.97790538  0.40125629  0.63997773    -0.82700
O856        O  0.12208203  0.50506330  0.68503216    -0.81000
C857        C  0.95684781  0.57722839  0.74681828     0.87100
O858        O  0.05526336  0.54234314  0.73226072    -0.88200
O859        O  0.01326352  0.53160545  0.82083600    -0.88300
O860        O  0.05477628  0.49159871  0.82047684    -0.75300
Mg861      Mg  0.91318051  0.51683162  0.73145483     1.58000
O862        O  0.90075772  0.53640479  0.85952919    -0.82700
H863        H  0.98106174  0.51886749  0.61085656    -0.06400
O864        O  0.05010927  0.46484578  0.71768965    -0.88000
H865        H  0.06043175  0.42418966  0.76008304    -0.06300
H866        H  0.06030689  0.58271141  0.68748370    -0.06400
C867        C  0.04128492  0.43741677  0.73841122     0.87100
C868        C  0.97174745  0.50899209  0.64415319     0.87700
C869        C  0.05575782  0.55481161  0.69217408     0.87800
H870        H  0.02068714  0.49818899  0.87412798    -0.06400
O871        O  0.95108240  0.47698807  0.82563021    -0.75400
Mg872      Mg  0.08653528  0.49850781  0.75222022     1.58000
H873        H  0.94047707  0.43102766  0.79249342    -0.06400
C874        C  0.00906196  0.39346191  0.62853783     0.92700
O875        O  0.09977455  0.47252636  0.62720872    -0.82700
C876        C  0.12433108  0.49177010  0.64408290     0.92800
O877        O  0.87495900  0.48497922  0.68822622    -0.82600
Mg878      Mg  0.95896992  0.53606508  0.83894898     1.58200
O879        O  0.03408155  0.41607823  0.63183240    -0.81000
O880        O  0.01877359  0.61436824  0.84216384    -0.82700
C881        C  0.83625233  0.44833524  0.53483277    -0.20200
C882        C  0.80441503  0.46555839  0.54176284    -0.06800
C883        C  0.79931992  0.48498556  0.58306021     0.14100
C884        C  0.82546442  0.48525384  0.61743209    -0.20300
C885        C  0.85675714  0.46624982  0.61242140    -0.06800
C886        C  0.86262018  0.44836434  0.56952114     0.14100
C887        C  0.89580758  0.42835921  0.56000312    -0.23600
H888        H  0.83961778  0.43309058  0.50327776     0.15400
H889        H  0.82069446  0.50002123  0.64903718     0.15400
C890        C  0.76603697  0.50493075  0.59285965    -0.23600
H891        H  0.89536622  0.41593001  0.52495276     0.05600
H892        H  0.89879136  0.40706374  0.58633656     0.08800
H893        H  0.91889862  0.44645421  0.56110362     0.08800
H894        H  0.74665826  0.50367999  0.56389904     0.08800
H895        H  0.75392068  0.48813293  0.12738249     0.08800
H896        H  0.77264530  0.53306768  0.59871001     0.05600
C897        C  0.79830883  0.46604179  0.89407518    -0.20200
C898        C  0.79280594  0.48371812  0.93636849    -0.06800
C899        C  0.81247164  0.51482034  0.94486797     0.14100
C900        C  0.83862852  0.52578615  0.91283275    -0.20300
C901        C  0.84503136  0.50746771  0.87097384    -0.06800
C902        C  0.82373177  0.47737842  0.86130567     0.14100
C903        C  0.82829968  0.45588465  0.81763593    -0.23600
H904        H  0.78325927  0.44231102  0.88732760     0.15400
H905        H  0.85404606  0.54916317  0.92068844     0.15400
C906        C  0.80571785  0.53773887  0.98641937    -0.23600
H907        H  0.81000443  0.43293169  0.81668663     0.05600
H908        H  0.85551123  0.44565940  0.81600985     0.08800
H909        H  0.82271832  0.47225385  0.78627736     0.08800
H910        H  0.78225930  0.52899522  0.00625788     0.08800
H911        H  0.80071673  0.56504495  0.97441454     0.08800
H912        H  0.82904346  0.53780835  0.00988278     0.05600
C913        C  0.69603354  0.49888512  0.92864568    -0.20200
C914        C  0.71157780  0.46578746  0.92423153    -0.06800
C915        C  0.69462638  0.43983818  0.89707990     0.14100
C916        C  0.66118685  0.44629739  0.87885425    -0.20300
C917        C  0.64359991  0.47800091  0.88733677    -0.06800
C918        C  0.66211263  0.50539111  0.91071197     0.14100
C919        C  0.64585752  0.54067838  0.91943509    -0.23600
H920        H  0.71021025  0.51970874  0.44468461     0.15400
H921        H  0.64827136  0.42554115  0.85920552     0.15400
C922        C  0.71022243  0.40406799  0.88933950    -0.23600
H923        H  0.66782463  0.56201073  0.43070180     0.05600
H924        H  0.62121301  0.53731388  0.93978943     0.08800
H925        H  0.64016440  0.55390213  0.88559667     0.08800
H926        H  0.73673472  0.40142389  0.90511367     0.08800
H927        H  0.71263657  0.39926927  0.85123211     0.08800
H928        H  0.69276500  0.38355508  0.90487224     0.05600
C929        C  0.15769661  0.51907081  0.88124207    -0.20200
C930        C  0.14117930  0.55076438  0.86961143    -0.06800
C931        C  0.14738401  0.58071871  0.89766723     0.14100
C932        C  0.17176823  0.57861306  0.93467160    -0.20300
C933        C  0.18936512  0.54720776  0.94485117    -0.06800
C934        C  0.18149366  0.51689088  0.91851586     0.14100
C935        C  0.19920782  0.48245555  0.92839204    -0.23600
H936        H  0.15208653  0.49576681  0.86075251     0.15400
H937        H  0.17878081  0.60211320  0.95399858     0.15400
C938        C  0.13015180  0.61536269  0.88713519    -0.23600
H939        H  0.19127751  0.46187541  0.90295037     0.05600
H940        H  0.18911489  0.46319005  0.46433111     0.08800
H941        H  0.22823923  0.48562510  0.92660219     0.08800
H942        H  0.10125810  0.61292073  0.89173421     0.08800
H943        H  0.13610530  0.62360274  0.85067068     0.08800
H944        H  0.13969341  0.63641175  0.91090852     0.05600
C945        C  0.18824505  0.54230505  0.56532511    -0.20200
C946        C  0.21034562  0.51565339  0.54925361    -0.06800
C947        C  0.20552435  0.48111550  0.56716341     0.14100
C948        C  0.17744973  0.47388897  0.59825627    -0.20300
C949        C  0.15520665  0.50062385  0.61391292    -0.06800
C950        C  0.16116524  0.53537826  0.59769317     0.14100
C951        C  0.13791312  0.56502120  0.61282328    -0.23600
H952        H  0.19192327  0.56870195  0.55162350     0.15400
H953        H  0.17300324  0.44727072  0.61078113     0.15400
C954        C  0.22962776  0.45174236  0.55380605    -0.23600
H955        H  0.14572383  0.59035845  0.59615280     0.05600
H956        H  0.13970126  0.56832571  0.65129334     0.08800
H957        H  0.11022645  0.55918246  0.60286969     0.08800
H958        H  0.25580716  0.45613592  0.56985116     0.08800
H959        H  0.23515679  0.46007070  0.01379108     0.08800
H960        H  0.21967518  0.42590105  0.56665476     0.05600
C961        C  0.35112083  0.48687748  0.56657248    -0.20200
C962        C  0.35745660  0.51160455  0.60182878    -0.06800
C963        C  0.33029667  0.53514731  0.61414429     0.14100
C964        C  0.29899650  0.53544899  0.58782741    -0.20300
C965        C  0.29451226  0.51317235  0.54949928    -0.06800
C966        C  0.32022479  0.48759001  0.54000136     0.14100
C967        C  0.31542840  0.47759946  0.99446912    -0.23600
H968        H  0.37122423  0.46802705  0.55783538     0.15400
H969        H  0.27930620  0.55515630  0.59466205     0.15400
C970        C  0.33405997  0.56024555  0.65449134    -0.23600
H971        H  0.31743228  0.44958988  0.00517816     0.05600
H972        H  0.33713284  0.48405515  0.96987341     0.08800
H973        H  0.29011458  0.48072681  0.97565484     0.08800
H974        H  0.35490777  0.58009295  0.64701662     0.08800
H975        H  0.34064720  0.54546660  0.68689650     0.08800
H976        H  0.30932706  0.57471622  0.66087946     0.05600
C977        C  0.50416892  0.15735276  0.58393583    -0.20200
C978        C  0.47733767  0.14552008  0.61379033    -0.06800
C979        C  0.44658785  0.16586748  0.61867746     0.14100
C980        C  0.44275403  0.19651190  0.59135514    -0.20300
C981        C  0.46865009  0.20671864  0.55910092    -0.06800
C982        C  0.49990283  0.18704925  0.55565295     0.14100
C983        C  0.52796003  0.19574956  0.51993287    -0.23600
H984        H  0.52785185  0.14194883  0.58052418     0.15400
H985        H  0.41856649  0.21129128  0.59299728     0.15400
C986        C  0.41792860  0.15553801  0.65249092    -0.23600
H987        H  0.55115576  0.17844314  0.52369234     0.05600
H988        H  0.53723259  0.22323376  0.52384113     0.08800
H989        H  0.50090818  0.20093350  0.98263994     0.08800
H990        H  0.42904635  0.15318145  0.68830895     0.08800
H991        H  0.40583433  0.13008842  0.64207402     0.08800
H992        H  0.39671095  0.17537230  0.65331258     0.05600
C993        C  0.49936063  0.31241972  0.94762415    -0.20200
C994        C  0.46292270  0.30995263  0.95531209    -0.06800
C995        C  0.44002723  0.33170708  0.92964175     0.14100
C996        C  0.45380504  0.35349665  0.89447007    -0.20300
C997        C  0.48993096  0.35422591  0.88449507    -0.06800
C998        C  0.51323277  0.33461789  0.91256295     0.14100
C999        C  0.55223367  0.33535753  0.90365089    -0.23600
H1000       H  0.51673438  0.29499222  0.96657377     0.15400
H1001       H  0.43613413  0.36957931  0.87382695     0.15400
C1002       C  0.40097147  0.33142675  0.93863529    -0.23600
H1003       H  0.56648094  0.31746818  0.92780235     0.05600
H1004       H  0.56276490  0.36237844  0.90886673     0.08800
H1005       H  0.55754621  0.32698532  0.86724258     0.08800
H1006       H  0.39597477  0.33890702  0.97542701     0.08800
H1007       H  0.38960549  0.30493926  0.93207304     0.08800
H1008       H  0.38704211  0.35040333  0.91566463     0.05600
C1009       C  0.42869406  0.30740136  0.56576133    -0.20200
C1010       C  0.46091398  0.29057249  0.55858459    -0.06800
C1011       C  0.49008248  0.30034909  0.58651657     0.14100
C1012       C  0.48678531  0.32781136  0.61914329    -0.20300
C1013       C  0.45507761  0.34606441  0.62424465    -0.06800
C1014       C  0.42541131  0.33503138  0.59796932     0.14100
C1015       C  0.39018113  0.35215452  0.60402566    -0.23600
H1016       H  0.40621242  0.29940965  0.54488989     0.15400
H1017       H  0.50954729  0.33613454  0.63931283     0.15400
C1018       C  0.52485380  0.28252064  0.58135295    -0.23600
H1019       H  0.36951699  0.33922671  0.58240053     0.05600
H1020       H  0.39168532  0.38019755  0.59331869     0.08800
H1021       H  0.38202753  0.35026991  0.64121843     0.08800
H1022       H  0.53407025  0.28468498  0.54473124     0.08800
H1023       H  0.52200163  0.25451265  0.59155315     0.08800
H1024       H  0.54531715  0.29446975  0.60424458     0.05600
C1025       C  0.50487201  0.80314991  0.94503912    -0.20200
C1026       C  0.53815627  0.78967828  0.93482012    -0.06800
C1027       C  0.56009526  0.80763074  0.90292884     0.14100
C1028       C  0.54886171  0.83957316  0.88339461    -0.20300
C1029       C  0.51616973  0.85401371  0.89527037    -0.06800
C1030       C  0.49344466  0.83496495  0.92555821     0.14100
C1031       C  0.45809676  0.84884377  0.93983249    -0.23600
H1032       H  0.48079303  0.78936371  0.46408067     0.15400
H1033       H  0.56599829  0.85369047  0.85937389     0.15400
C1034       C  0.59570898  0.79347647  0.89073448    -0.23600
H1035       H  0.43613396  0.82874137  0.45235588     0.05600
H1036       H  0.44044852  0.85015438  0.90893675     0.08800
H1037       H  0.46126406  0.87538516  0.95534143     0.08800
H1038       H  0.59262110  0.76677905  0.87566194     0.08800
H1039       H  0.61237375  0.79191148  0.92260173     0.08800
H1040       H  0.60947494  0.81046081  0.86472942     0.05600
C1041       C  0.49139853  0.68604796  0.55436817    -0.20200
C1042       C  0.52751206  0.69074985  0.54546265    -0.06800
C1043       C  0.55204071  0.66970467  0.56951768     0.14100
C1044       C  0.54010965  0.64586676  0.60345878    -0.20300
C1045       C  0.50426768  0.64256895  0.61446861    -0.06800
C1046       C  0.47941757  0.66206603  0.58867467     0.14100
C1047       C  0.44074773  0.65953272  0.59954242    -0.23600
H1048       H  0.47274082  0.70319841  0.53727408     0.15400
H1049       H  0.55920364  0.63033235  0.62253376     0.15400
C1050       C  0.59114934  0.67281240  0.56168579    -0.23600
H1051       H  0.42514541  0.67768170  0.57732190     0.05600
H1052       H  0.43624231  0.66644819  0.63670245     0.08800
H1053       H  0.43101469  0.63237047  0.59317461     0.08800
H1054       H  0.60750216  0.67774295  0.09629680     0.08800
H1055       H  0.60326537  0.68734657  0.03499508     0.08800
H1056       H  0.60152196  0.64693478  0.55088716     0.05600
C1057       C  0.57347230  0.68513354  0.93076099    -0.20200
C1058       C  0.54231247  0.70419567  0.93611121    -0.06800
C1059       C  0.51318762  0.69586770  0.90740099     0.14100
C1060       C  0.51549126  0.66784049  0.87537676    -0.20300
C1061       C  0.54603143  0.64737810  0.87214967    -0.06800
C1062       C  0.57559921  0.65665045  0.89981595     0.14100
C1063       C  0.60956756  0.63673022  0.89681373    -0.23600
H1064       H  0.59603064  0.69211802  0.95207071     0.15400
H1065       H  0.49277222  0.66085446  0.85427796     0.15400
C1066       C  0.47948246  0.71585064  0.91134271    -0.23600
H1067       H  0.63051505  0.64881758  0.91880739     0.05600
H1068       H  0.61895522  0.63657004  0.86008971     0.08800
H1069       H  0.60558808  0.60934976  0.90932866     0.08800
H1070       H  0.48400134  0.74355018  0.90072264     0.08800
H1071       H  0.46447376  0.71172014  0.45618747     0.08800
H1072       H  0.45866475  0.70479197  0.88823065     0.05600
C1073       C  0.16422502  0.96591772  0.63612908    -0.20200
C1074       C  0.14092025  0.99296036  0.62359044    -0.06800
C1075       C  0.15148085  0.01765033  0.58889916     0.14100
C1076       C  0.18276210  0.01202398  0.56418052    -0.20300
C1077       C  0.20421108  0.98309674  0.57392859    -0.06800
C1078       C  0.19569319  0.96074211  0.61169260     0.14100
C1079       C  0.21867764  0.93004014  0.62410306    -0.23600
H1080       H  0.15703656  0.94767134  0.66383654     0.15400
H1081       H  0.18463122  0.02066615  0.02504734     0.15400
C1082       C  0.12907671  0.04855748  0.57524420    -0.23600
H1083       H  0.20807534  0.91487562  0.65432684     0.05600
H1084       H  0.24537964  0.93975068  0.63353884     0.08800
H1085       H  0.22060949  0.91193833  0.59393626     0.08800
H1086       H  0.12597440  0.06628289  0.60561960     0.08800
H1087       H  0.10287781  0.03923601  0.56298916     0.08800
H1088       H  0.13454756  0.05390293  0.03281990     0.05600
C1089       C  0.32199465  0.92758576  0.95267155    -0.20200
C1090       C  0.30172614  0.95765711  0.95989318    -0.06800
C1091       C  0.30764707  0.98772280  0.93184838     0.14100
C1092       C  0.33266730  0.98662987  0.89608750    -0.20300
C1093       C  0.35224451  0.95623748  0.88750623    -0.06800
C1094       C  0.34762505  0.92662379  0.91725084     0.14100
C1095       C  0.36827793  0.89348240  0.91061490    -0.23600
H1096       H  0.31661480  0.90426193  0.97352199     0.15400
H1097       H  0.33677523  0.00974843  0.87435598     0.15400
C1098       C  0.28656138  0.02061185  0.93830131    -0.23600
H1099       H  0.35987722  0.87242148  0.93536045     0.05600
H1100       H  0.39659817  0.89888153  0.91704151     0.08800
H1101       H  0.36447840  0.88356428  0.87449671     0.08800
H1102       H  0.29182319  0.03127170  0.97357250     0.08800
H1103       H  0.25804054  0.01475302  0.93434503     0.08800
H1104       H  0.29376376  0.04129326  0.91237271     0.05600
C1105       C  0.31735341  0.02823961  0.61211656    -0.20200
C1106       C  0.33991654  0.00244104  0.63010346    -0.06800
C1107       C  0.33567173  0.96733777  0.61490158     0.14100
C1108       C  0.30959735  0.95906102  0.58164176    -0.20300
C1109       C  0.28712548  0.98476233  0.56336426    -0.06800
C1110       C  0.29074772  0.01979919  0.57941257     0.14100
C1111       C  0.26783880  0.04905535  0.56190511    -0.23600
H1112       H  0.32078125  0.05526111  0.62323157     0.15400
H1113       H  0.30661303  0.93224269  0.56957932     0.15400
C1114       C  0.35951523  0.93871066  0.63237881    -0.23600
H1115       H  0.25222339  0.05959965  0.59130368     0.05600
H1116       H  0.24959928  0.04036628  0.53398682     0.08800
H1117       H  0.28454757  0.07054611  0.54727379     0.08800
H1118       H  0.35700729  0.93593303  0.67088362     0.08800
H1119       H  0.38719961  0.94528821  0.62338545     0.08800
H1120       H  0.35287960  0.91290023  0.61647894     0.05600
C1121       C  0.80741773  0.00013843  0.96495315    -0.20200
C1122       C  0.78427937  0.02622253  0.94935022    -0.06800
C1123       C  0.79295421  0.04636141  0.90952099     0.14100
C1124       C  0.82581920  0.04182120  0.88838916    -0.20300
C1125       C  0.85031878  0.01767095  0.90628676    -0.06800
C1126       C  0.84028755  0.99539050  0.94384689     0.14100
C1127       C  0.86480548  0.96838710  0.96414785    -0.23600
H1128       H  0.80088392  0.98537695  0.99636789     0.15400
H1129       H  0.83291645  0.05817194  0.85863483     0.15400
C1130       C  0.76840342  0.07396883  0.89093059    -0.23600
H1131       H  0.85310027  0.95467478  0.99487241     0.05600
H1132       H  0.88964490  0.98130159  0.97572451     0.08800
H1133       H  0.87059756  0.94813792  0.93756472     0.08800
H1134       H  0.76476576  0.09493170  0.41739254     0.08800
H1135       H  0.74340036  0.06130724  0.87968660     0.08800
H1136       H  0.78141681  0.08946420  0.35914901     0.05600
C1137       C  0.67043730  0.02030100  0.56539225    -0.20200
C1138       C  0.68326553  0.05346967  0.55198735    -0.06800
C1139       C  0.66961513  0.08377429  0.57375076     0.14100
C1140       C  0.64553972  0.07992176  0.61060202    -0.20300
C1141       C  0.63521606  0.04653113  0.62665613    -0.06800
C1142       C  0.64675100  0.01639007  0.60261616     0.14100
C1143       C  0.63420418  0.97998681  0.61604262    -0.23600
H1144       H  0.68093690  0.99713789  0.54916790     0.15400
H1145       H  0.63566837  0.10310108  0.62787069     0.15400
C1146       C  0.68058410  0.12049050  0.55957810    -0.23600
H1147       H  0.64496787  0.95965654  0.59248712     0.05600
H1148       H  0.60506957  0.97855515  0.61382010     0.08800
H1149       H  0.64276591  0.97355049  0.65217708     0.08800
H1150       H  0.69825673  0.12089294  0.52879505     0.08800
H1151       H  0.69426996  0.13353632  0.58923726     0.08800
H1152       H  0.65690684  0.13586441  0.55017454     0.05600
C1153       C  0.68075354  0.04651561  0.92736506    -0.20200
C1154       C  0.70079297  0.02159971  0.95157939    -0.06800
C1155       C  0.69549821  0.98556086  0.94179970     0.14100
C1156       C  0.66931838  0.97532705  0.90923247    -0.20300
C1157       C  0.64923397  0.00040787  0.88492161    -0.06800
C1158       C  0.65547032  0.03651717  0.89389262     0.14100
C1159       C  0.63426705  0.06467881  0.87002562    -0.23600
H1160       H  0.68484842  0.07408863  0.93521446     0.15400
H1161       H  0.66441766  0.94765832  0.90279752     0.15400
C1162       C  0.71700179  0.95795679  0.96607919    -0.23600
H1163       H  0.64199497  0.09139018  0.88202414     0.05600
H1164       H  0.60594492  0.06071311  0.87793205     0.08800
H1165       H  0.63839438  0.06370534  0.83166176     0.08800
H1166       H  0.71426797  0.96014296  0.00449382     0.08800
H1167       H  0.74504240  0.96130076  0.95654219     0.08800
H1168       H  0.70862954  0.93103296  0.95577012     0.05600
C1169       C  0.98929922  0.18532391  0.95837034    -0.20200
C1170       C  0.02450035  0.19666516  0.95490566    -0.06800
C1171       C  0.04578943  0.18356874  0.91874062     0.14100
C1172       C  0.03096060  0.16105210  0.88562069    -0.20300
C1173       C  0.99525751  0.15139432  0.88698367    -0.06800
C1174       C  0.97429089  0.16278339  0.92463712     0.14100
C1175       C  0.93583901  0.15319544  0.92777071    -0.23600
H1176       H  0.97285040  0.19623486  0.98545118     0.15400
H1177       H  0.04743946  0.15127846  0.85778045     0.15400
C1178       C  0.08407754  0.19389762  0.91398129    -0.23600
H1179       H  0.92308546  0.16594745  0.95807223     0.05600
H1180       H  0.93264271  0.12434218  0.93213506     0.08800
H1181       H  0.92203953  0.16183521  0.89548179     0.08800
H1182       H  0.09861490  0.18602779  0.94583083     0.08800
H1183       H  0.08711522  0.22261077  0.90845633     0.08800
H1184       H  0.09663063  0.18075953  0.88383020     0.05600
C1185       C  0.00589867  0.20078556  0.58611081    -0.20200
C1186       C  0.03691366  0.20904457  0.56178755    -0.06800
C1187       C  0.06802141  0.19072066  0.57318091     0.14100
C1188       C  0.06695447  0.16349068  0.60667616    -0.20300
C1189       C  0.03584069  0.15467544  0.63061192    -0.06800
C1190       C  0.00500031  0.17397521  0.62053250     0.14100
C1191       C  0.97071062  0.16530083  0.64439013    -0.23600
H1192       H  0.98218618  0.21495278  0.57742535     0.15400
H1193       H  0.09071587  0.14894162  0.61412761     0.14200
C1194       C  0.10288522  0.19941561  0.55084338    -0.23600
H1195       H  0.94899825  0.18198905  0.63119845     0.05600
H1196       H  0.97328317  0.16974688  0.68257107     0.08800
H1197       H  0.96340339  0.13739458  0.63800555     0.08800
H1198       H  0.10144311  0.22159986  0.52567875     0.08800
H1199       H  0.11272529  0.17601155  0.53216055     0.08800
H1200       H  0.12217653  0.20683974  0.57838963     0.05600
C1201       C  0.99988601  0.30010014  0.57909632    -0.20200
C1202       C  0.03520725  0.29213802  0.57130225    -0.06800
C1203       C  0.06159194  0.31467654  0.58897679     0.14100
C1204       C  0.05216632  0.34676972  0.60911211    -0.20300
C1205       C  0.01676090  0.35709457  0.61186707    -0.06800
C1206       C  0.99013305  0.33225213  0.59900605     0.14100
C1207       C  0.95139069  0.33968833  0.60321003    -0.23600
H1208       H  0.97975505  0.28274046  0.56493815     0.15400
H1209       H  0.07280792  0.36445138  0.62101150     0.15400
C1210       C  0.09984931  0.30542380  0.58433344    -0.23600
H1211       H  0.93485071  0.31737253  0.59073227     0.05600
H1212       H  0.94467377  0.36299578  0.58162359     0.08800
H1213       H  0.94447680  0.34416622  0.64036905     0.08800
H1214       H  0.10713621  0.30342839  0.54690623     0.08800
H1215       H  0.10465412  0.27978376  0.60184998     0.08800
H1216       H  0.11726610  0.32551168  0.60071261     0.05600
C1217       C  0.96043124  0.82401883  0.58465779    -0.20200
C1218       C  0.98935897  0.81000788  0.56141344    -0.06800
C1219       C  0.02351503  0.82278305  0.57217689     0.14100
C1220       C  0.02797650  0.84781383  0.60771090    -0.20300
C1221       C  0.99924692  0.85954761  0.63380479    -0.06800
C1222       C  0.96481242  0.84871055  0.62052598     0.14100
C1223       C  0.93242202  0.86301030  0.64374373    -0.23600
H1224       H  0.93437107  0.81376794  0.57699331     0.15400
H1225       H  0.05428766  0.85684057  0.61664155     0.15400
C1226       C  0.05594655  0.80921327  0.54853222    -0.23600
H1227       H  0.90790476  0.85344805  0.62657511     0.05600
H1228       H  0.93272036  0.89216508  0.64160180     0.08800
H1229       H  0.93131761  0.85447707  0.68085897     0.08800
H1230       H  0.04823135  0.77620994  0.03297151     0.08800
H1231       H  0.07354685  0.79704970  0.57496613     0.08800
H1232       H  0.07013576  0.83137830  0.53125716     0.05600
C1233       C  0.99951453  0.81751263  0.94217639    -0.20200
C1234       C  0.97030327  0.79725347  0.95606121    -0.06800
C1235       C  0.93657192  0.80658966  0.93941493     0.14100
C1236       C  0.93286919  0.83549753  0.90869573    -0.20300
C1237       C  0.96221949  0.85529108  0.89406511    -0.06800
C1238       C  0.99591905  0.84618660  0.91118093     0.14100
C1239       C  0.02801022  0.86756408  0.89805923    -0.23600
H1240       H  0.02514784  0.81122343  0.95630090     0.15400
H1241       H  0.90696525  0.84293819  0.89649897     0.15400
C1242       C  0.90433640  0.78688931  0.95569961    -0.23600
H1243       H  0.05219830  0.85720931  0.91482222     0.05600
H1244       H  0.02470709  0.89516085  0.90950296     0.08800
H1245       H  0.03174209  0.86700943  0.85959241     0.08800
H1246       H  0.90268462  0.78779953  0.99442445     0.08800
H1247       H  0.90561322  0.75917932  0.94434665     0.08800
H1248       H  0.87989446  0.79832534  0.94101426     0.05600
C1249       C  0.94398625  0.69338308  0.92722683    -0.20200
C1250       C  0.97319897  0.71442249  0.93900197    -0.06800
C1251       C  0.00618244  0.70653717  0.91923446     0.14100
C1252       C  0.00960914  0.67650288  0.89146473    -0.20300
C1253       C  0.98114163  0.65328313  0.88340229    -0.06800
C1254       C  0.94729223  0.66320057  0.89938242     0.14100
C1255       C  0.91449692  0.64200842  0.88875523    -0.23600
H1256       H  0.91887946  0.69881066  0.94331603     0.15400
H1257       H  0.03551752  0.67022007  0.87842732     0.15400
C1258       C  0.04603899  0.72000179  0.44219498    -0.23600
H1259       H  0.89045768  0.65504937  0.90177413     0.05600
H1260       H  0.91577873  0.61585051  0.90600434     0.08800
H1261       H  0.91152382  0.63891972  0.85035069     0.08800
H1262       H  0.06309944  0.70198694  0.46259297     0.08800
H1263       H  0.04172299  0.74376370  0.46338241     0.08800
H1264       H  0.06005180  0.72822434  0.40986249     0.05600
loop_ 
_geom_bond_atom_site_label_1 
_geom_bond_atom_site_label_2 
_geom_bond_distance 
_geom_bond_site_symmetry_2 
_ccdc_geom_bond_type 
N1            C2   1.364       .  A
N1          C637   1.360       .  A
N1          C602   1.448       .  S
C2          C618   1.480       .  S
C2          C635   1.382       .  A
C3            C4   1.368       .  A
C3          C634   1.381   1_554  A
C3            H6   1.083       .  S
C4            C5   1.379       .  A
C4            H7   1.082       .  S
C5          N633   1.360   1_554  A
C5          C586   1.476       .  S
N8            C9   1.360       .  A
N8          C644   1.361   1_554  A
N8          C554   1.450       .  S
C9          C570   1.471       .  S
C9          C642   1.381   1_554  A
C10          C11   1.365       .  A
C10         C641   1.380       .  A
C10          H13   1.083       .  S
C11          C12   1.381       .  A
C11          H14   1.082       .  S
C12         N640   1.361       .  A
C12         C538   1.477       .  S
N15          C16   1.361       .  A
N15         C651   1.364       .  A
N15         C522   1.450       .  S
C16         C490   1.473       .  S
C16         C649   1.380       .  A
C17          C18   1.365       .  A
C17         C648   1.381   1_554  A
C17          H20   1.083       .  S
C18          C19   1.380       .  A
C18          H21   1.082       .  S
C19         N647   1.360   1_554  A
C19         C506   1.472       .  S
N22          C23   1.361       .  A
N22         C658   1.361   1_554  A
N22         C477   1.449       .  S
C23         C445   1.475       .  S
C23         C656   1.381   1_554  A
C24          C25   1.367       .  A
C24         C655   1.380       .  A
C24          H27   1.082       .  S
C25          C26   1.380       .  A
C25          H28   1.082       .  S
C26         N654   1.363       .  A
C26         C458   1.477       .  S
N29          C30   1.361       .  A
N29         C665   1.359       .  A
N29         C426   1.448       .  S
C30         C394   1.473       .  S
C30         C663   1.382       .  A
C31          C32   1.365       .  A
C31         C662   1.383   1_554  A
C31          H34   1.083       .  S
C32          C33   1.377       .  A
C32          H35   1.082       .  S
C33         N661   1.359   1_554  A
C33         C410   1.474       .  S
N36          C37   1.362       .  A
N36         C672   1.359   1_554  A
N36         C378   1.450       .  S
C37         C349   1.475       .  S
C37         C670   1.382   1_554  A
C38          C39   1.364       .  A
C38         C669   1.381       .  A
C38          H41   1.083       .  S
C39          C40   1.379       .  A
C39          H42   1.083       .  S
C40         N668   1.359       .  A
C40         C362   1.472       .  S
N43          C44   1.362       .  A
N43         C679   1.364   1_554  A
N43         C314   1.454       .  S
C44         C333   1.469       .  S
C44         C677   1.381   1_554  A
C45          C46   1.363       .  A
C45         C676   1.382       .  A
C45          H48   1.083       .  S
C46          C47   1.379       .  A
C46          H49   1.083       .  S
C47         N675   1.361       .  A
C47         C301   1.471       .  S
N50          C51   1.360       .  A
N50         C686   1.360       .  A
N50         C266   1.450       .  S
C51         C282   1.474       .  S
C51         C684   1.382       .  A
C52          C53   1.361   1_556  A
C52         C683   1.380       .  A
C52          H55   1.083   1_556  S
C53          C54   1.380       .  A
C53          H56   1.083       .  S
C54         N682   1.365   1_554  A
C54         C250   1.473       .  S
O57         Mg59   2.134       .  S
O57         Mg65   2.138       .  S
O57          C92   1.240       .  S
C58          H97   1.082       .  S
C58          O71   1.239       .  S
C58          O95   1.274       .  A
Mg59         O88   2.126       .  S
Mg59        O103   2.305       .  S
Mg59         O99   2.277       .  S
Mg59         O70   2.301       .  S
O60        Mg102   2.118       .  S
O60         Mg85   2.121       .  S
O60          C81   1.240       .  S
O61          C92   1.275       .  A
O61         Mg85   2.313       .  S
C62         C365   1.479       .  S
C62          O64   1.271       .  A
C62          O76   1.273       .  A
O63          C91   1.273       .  A
O63         Mg65   2.298       .  S
O64         Mg96   2.243       .  S
Mg65         O71   2.143       .  S
Mg65         O79   2.253       .  S
Mg65         O67   2.322       .  S
C66         C285   1.495       .  S
C66         O104   1.270       .  A
C66          O72   1.276       .  A
O67          C74   1.275       .  A
H68          C81   1.081       .  S
C69          H94   1.081       .  S
C69          O83   1.241       .  S
C69          O84   1.276       .  A
O70          C93   1.271       .  A
O71         Mg85   2.122       .  S
O72        Mg102   2.340       .  S
C73         C429   1.489       .  S
C73          O86   1.273       .  A
C73          O78   1.280       .  A
C74         C413   1.476       .  S
C74         O101   1.271       .  A
Mg75         O82   2.131       .  S
Mg75         O83   2.120       .  S
Mg75         O76   2.307       .  S
Mg75         O77   2.310       .  S
Mg75        O104   2.238       .  S
O77          C81   1.275       .  A
O78         Mg85   2.353       .  S
O79          C98   1.271       .  A
O80         C100   1.280       .  A
O80         Mg96   2.357       .  S
O82         Mg96   2.126       .  S
O82          C93   1.238       .  S
O83        Mg102   2.139       .  S
O84         Mg96   2.318       .  S
Mg85        O101   2.246       .  S
O86        Mg102   2.270       .  S
H87          C92   1.081       .  S
O88         Mg96   2.113       .  S
O88          C91   1.240       .  S
H89          C91   1.081       .  S
H90          C93   1.082       .  S
O95        Mg102   2.313       .  S
C98         C330   1.479       .  S
C98         O103   1.275       .  A
O99         C100   1.274       .  A
C100        C381   1.491       .  S
O105       Mg107   2.140       .  S
O105       Mg113   2.135       .  S
O105        C140   1.242       .  S
C106        H145   1.081       .  S
C106        O119   1.238       .  S
C106        O143   1.273       .  A
Mg107       O136   2.128       .  S
Mg107       O151   2.321       .  S
Mg107       O147   2.286       .  S
Mg107       O118   2.304   1_545  S
O108       Mg150   2.124       .  S
O108       Mg133   2.113       .  S
O108        C129   1.239       .  S
O109        C140   1.276   1_565  A
O109       Mg133   2.316       .  S
C110        C461   1.482       .  S
C110        O112   1.273       .  A
C110        O124   1.273       .  A
O111        C139   1.274       .  A
O111       Mg113   2.302       .  S
O112       Mg144   2.258   1_565  S
Mg113       O119   2.144       .  S
Mg113       O127   2.264       .  S
Mg113       O115   2.298       .  S
C114        C397   1.489       .  S
C114        O152   1.270       .  A
C114        O120   1.278       .  A
O115        C122   1.273       .  A
H116        C129   1.081       .  S
C117        H142   1.081       .  S
C117        O131   1.242   1_545  S
C117        O132   1.276       .  A
O118        C141   1.272       .  A
O119       Mg133   2.133   1_545  S
O120       Mg150   2.326       .  S
C121        C525   1.496   1_565  S
C121        O134   1.276       .  A
C121        O126   1.282   1_565  A
C122        C509   1.476       .  S
C122        O149   1.272       .  A
Mg123       O130   2.136       .  S
Mg123       O131   2.140       .  S
Mg123       O124   2.306       .  S
Mg123       O125   2.297       .  S
Mg123       O152   2.249       .  S
O125        C129   1.273       .  A
O126       Mg133   2.363   1_545  S
O127        C146   1.272       .  A
O128        C148   1.280       .  A
O128       Mg144   2.354       .  S
O130       Mg144   2.128   1_565  S
O130        C141   1.237       .  S
O131       Mg150   2.148       .  S
O132       Mg144   2.315       .  S
Mg133       O149   2.255   1_565  S
O134       Mg150   2.297       .  S
H135        C140   1.081   1_565  S
O136       Mg144   2.123       .  S
O136        C139   1.240       .  S
H137        C139   1.081       .  S
H138        C141   1.081       .  S
O143       Mg150   2.308   1_545  S
C146        C346   1.485       .  S
C146        O151   1.276       .  A
O147        C148   1.274       .  A
C148        C474   1.488       .  S
O153       Mg155   2.142   1_565  S
O153       Mg161   2.139       .  S
O153        C188   1.242   1_455  S
C154        H193   1.082       .  S
C154        O167   1.238       .  S
C154        O191   1.272       .  A
Mg155       O184   2.132       .  S
Mg155       O199   2.312       .  S
Mg155       O195   2.284       .  S
Mg155       O166   2.309   1_455  S
O156       Mg198   2.128       .  S
O156       Mg181   2.118       .  S
O156        C177   1.241       .  S
O157        C188   1.276       .  A
O157       Mg181   2.312       .  S
C158        C541   1.484       .  S
C158        O160   1.270       .  A
C158        O172   1.276       .  A
O159        C187   1.274   1_565  A
O159       Mg161   2.305       .  S
O160       Mg192   2.239   1_655  S
Mg161       O167   2.129       .  S
Mg161       O175   2.254       .  S
Mg161       O163   2.322       .  S
C162        C493   1.487       .  S
C162        O200   1.274       .  A
C162        O168   1.277   1_545  A
O163        C170   1.276       .  A
H164        C177   1.081       .  S
C165        H190   1.081       .  S
C165        O179   1.241   1_455  S
C165        O180   1.276       .  A
O166        C189   1.272       .  A
O167       Mg181   2.128   1_455  S
O168       Mg198   2.321       .  S
C169        C605   1.494       .  S
C169        O182   1.277       .  A
C169        O174   1.280       .  A
C170        C589   1.482   1_455  S
C170        O197   1.272   1_455  A
Mg171       O178   2.151       .  S
Mg171       O179   2.130       .  S
Mg171       O172   2.338       .  S
Mg171       O173   2.301       .  S
Mg171       O200   2.257       .  S
O173        C177   1.275   1_545  A
O174       Mg181   2.349       .  S
O175        C194   1.272       .  A
O176        C196   1.280       .  A
O176       Mg192   2.357       .  S
O178       Mg192   2.117   1_655  S
O178        C189   1.237       .  S
O179       Mg198   2.146   1_545  S
O180       Mg192   2.324       .  S
Mg181       O197   2.258       .  S
O182       Mg198   2.306       .  S
H183        C188   1.081       .  S
O184       Mg192   2.124       .  S
O184        C187   1.241       .  S
H185        C187   1.081       .  S
H186        C189   1.082       .  S
O191       Mg198   2.299   1_455  S
C194        C442   1.487       .  S
C194        O199   1.275   1_565  A
O195        C196   1.274       .  A
C196        C557   1.497       .  S
O201       Mg203   2.143   1_655  S
O201       Mg209   2.130       .  S
O201        C236   1.242       .  S
C202        H241   1.081       .  S
C202        O215   1.237       .  S
C202        O239   1.270       .  A
Mg203       O232   2.120       .  S
Mg203       O247   2.332       .  S
Mg203       O243   2.294       .  S
Mg203       O214   2.311       .  S
O204       Mg246   2.138       .  S
O204       Mg229   2.114       .  S
O204        C225   1.240       .  S
O205        C236   1.277       .  A
O205       Mg229   2.318       .  S
C206        C298   1.475       .  S
C206        O208   1.272       .  A
C206        O220   1.271       .  A
O207        C235   1.273       .  A
O207       Mg209   2.301   1_455  S
O208       Mg240   2.249       .  S
Mg209       O215   2.130       .  S
Mg209       O223   2.241       .  S
Mg209       O211   2.296       .  S
C210        C621   1.502       .  S
C210        O248   1.273   1_655  A
C210        O216   1.278       .  A
O211        C218   1.271       .  A
H212        C225   1.081       .  S
C213        H238   1.081       .  S
C213        O227   1.242       .  S
C213        O228   1.276       .  A
O214        C237   1.273       .  A
O215       Mg229   2.126       .  S
O216       Mg246   2.339       .  S
C217        C269   1.503       .  S
C217        O230   1.278       .  A
C217        O222   1.281       .  A
C218        C253   1.496       .  S
C218        O245   1.273       .  A
Mg219       O226   2.152       .  S
Mg219       O227   2.138       .  S
Mg219       O220   2.294       .  S
Mg219       O221   2.293   1_455  S
Mg219       O248   2.259       .  S
O221        C225   1.272       .  A
O222       Mg229   2.349       .  S
O223        C242   1.268   1_655  A
O224        C244   1.282       .  A
O224       Mg240   2.368       .  S
O226       Mg240   2.130       .  S
O226        C237   1.238       .  S
O227       Mg246   2.143   1_455  S
O228       Mg240   2.318       .  S
Mg229       O245   2.259       .  S
O230       Mg246   2.295       .  S
H231        C236   1.081       .  S
O232       Mg240   2.111       .  S
O232        C235   1.240       .  S
H233        C235   1.081       .  S
H234        C237   1.081       .  S
O239       Mg246   2.301       .  S
C242        C573   1.498       .  S
C242        O247   1.279       .  A
O243        C244   1.275       .  A
C244        C317   1.494       .  S
C249        C250   1.398       .  A
C249        C254   1.409       .  A
C249        H256   1.084       .  S
C250        C251   1.414       .  A
C251        C252   1.396       .  A
C251        C258   1.511       .  S
C252        C253   1.406       .  A
C252        H257   1.084       .  S
C253        C254   1.427       .  A
C254        C255   1.507       .  S
C255        H259   1.111       .  S
C255        H260   1.109       .  S
C255        H261   1.110       .  S
C258        H262   1.108       .  S
C258        H264   1.110       .  S
C258        H895   1.110       .  S
H263        C890   1.110       .  S
C265        C266   1.403       .  A
C265        C270   1.410       .  A
C265        H272   1.083       .  S
C266        C267   1.413       .  A
C267        C268   1.411       .  A
C267        C274   1.503       .  S
C268        C269   1.410       .  A
C268        H273   1.084       .  S
C269        C270   1.422       .  A
C270        C271   1.508       .  S
C271        H275   1.111       .  S
C271        H276   1.111       .  S
C271        H277   1.110       .  S
C274        H278   1.106       .  S
C274        H279   1.110       .  S
C274        H280   1.110       .  S
C281        C282   1.404       .  A
C281        C286   1.411       .  A
C281        H920   1.084       .  S
C282        C283   1.408       .  A
C283        C284   1.397       .  A
C283        C290   1.508       .  S
C284        C285   1.410       .  A
C284        H289   1.084       .  S
C285        C286   1.421       .  A
C286        C287   1.507       .  S
C287        H292   1.110       .  S
C287        H293   1.110       .  S
C287        H923   1.111       .  S
H288        C913   1.085       .  S
C290        H294   1.109       .  S
C290        H295   1.110       .  S
C290        H296   1.110       .  S
H291        C919   1.111       .  S
C297        C298   1.402       .  A
C297        C302   1.397       .  A
C297        H304   1.085       .  S
C298        C299   1.413       .  A
C299        C300   1.407       .  A
C299        C306   1.506       .  S
C300        C301   1.404       .  A
C300        H305   1.084       .  S
C301        C302   1.410       .  A
C302        C303   1.505       .  S
C303        H307   1.111       .  S
C303        H309   1.110       .  S
C303        H940   1.107       .  S
C306        H310   1.110       .  S
C306        H311   1.110       .  S
C306        H312   1.111       .  S
H308        C935   1.107       .  S
C313        C314   1.404       .  A
C313        C318   1.408       .  A
C313        H320   1.084       .  S
C314        C315   1.420       .  A
C315        C316   1.416       .  A
C315        C322   1.505       .  S
C316        C317   1.406       .  A
C316        H321   1.084       .  S
C317        C318   1.414       .  A
C318        C319   1.506       .  S
C319        H323   1.111       .  S
C319        H324   1.110       .  S
C319        H325   1.110       .  S
C322        H326   1.106       .  S
C322        H328   1.111       .  S
C322        H959   1.106       .  S
H327        C954   1.106       .  S
C329        C330   1.400       .  A
C329        C334   1.397       .  A
C329        H336   1.084       .  S
C330        C331   1.420       .  A
C331        C332   1.406       .  A
C331        C338   1.508       .  S
C332        C333   1.399       .  A
C332        H337   1.084       .  S
C333        C334   1.415       .  A
C334        C967   1.509   1_554  S
C335        C966   1.509       .  S
C335        H339   1.110       .  S
C335        H340   1.110       .  S
C335        H341   1.108       .  S
C338        H342   1.109       .  S
C338        H343   1.111       .  S
C338        H344   1.111       .  S
C345        C346   1.402       .  A
C345        C350   1.402       .  A
C345        H352   1.084       .  S
C346        C347   1.418       .  A
C347        C348   1.408       .  A
C347        C354   1.507       .  S
C348        C349   1.400       .  A
C348        H353   1.084       .  S
C349        C350   1.417       .  A
C350        C351   1.511       .  S
C351        H355   1.111       .  S
C351        H356   1.105       .  S
C351        H989   1.109   1_554  S
C354        H358   1.110       .  S
C354        H359   1.109       .  S
C354        H360   1.111       .  S
H357        C983   1.108       .  S
C361        C362   1.404       .  A
C361        C366   1.407       .  A
C361        H368   1.082       .  S
C362        C363   1.409       .  A
C363        C364   1.398       .  A
C363        C370   1.508       .  S
C364        C365   1.405       .  A
C364        H369   1.084       .  S
C365        C366   1.414       .  A
C366        C367   1.507       .  S
C367        H371   1.111       .  S
C367        H372   1.110       .  S
C367        H373   1.110       .  S
C370        H374   1.109       .  S
C370        H375   1.109       .  S
C370        H376   1.111       .  S
C377        C378   1.406       .  A
C377        C382   1.408       .  A
C377        H384   1.083       .  S
C378        C379   1.412       .  A
C379        C380   1.413       .  A
C379        C386   1.500       .  S
C380        C381   1.407       .  A
C380        H385   1.084       .  S
C381        C382   1.414       .  A
C382        C383   1.507       .  S
C383        H387   1.111       .  S
C383        H388   1.109       .  S
C383        H389   1.110       .  S
C386        H390   1.108       .  S
C386        H391   1.108       .  S
C386        H392   1.111       .  S
C393        C394   1.401       .  A
C393        C398   1.403       .  A
C393       H1032   1.085       .  S
C394        C395   1.408       .  A
C395        C396   1.406       .  A
C395        C402   1.506       .  S
C396        C397   1.408       .  A
C396        H401   1.084       .  S
C397        C398   1.420       .  A
C398        C399   1.508       .  S
C399        H404   1.109       .  S
C399        H405   1.110       .  S
C399       H1035   1.111       .  S
H400       C1025   1.085       .  S
C402        H406   1.111       .  S
C402        H407   1.110       .  S
C402        H408   1.111       .  S
H403       C1031   1.111       .  S
C409        C410   1.407       .  A
C409        C414   1.409       .  A
C409        H416   1.083       .  S
C410        C411   1.410       .  A
C411        C412   1.397       .  A
C411        C418   1.508       .  S
C412        C413   1.403       .  A
C412        H417   1.085       .  S
C413        C414   1.411       .  A
C414        C415   1.505       .  S
C415        H419   1.111       .  S
C415        H420   1.111       .  S
C415        H421   1.110       .  S
C418        H424   1.110       .  S
C418       H1054   1.110       .  S
C418       H1055   1.107       .  S
H422       C1050   1.110       .  S
H423       C1050   1.107       .  S
C425        C426   1.405       .  A
C425        C430   1.407       .  A
C425        H432   1.083       .  S
C426        C427   1.411       .  A
C427        C428   1.411       .  A
C427        C434   1.502       .  S
C428        C429   1.407       .  A
C428        H433   1.084       .  S
C429        C430   1.414       .  A
C430        C431   1.507       .  S
C431        H435   1.111       .  S
C431        H436   1.110       .  S
C431        H437   1.109       .  S
C434        H438   1.106       .  S
C434        H440   1.111       .  S
C434       H1071   1.108       .  S
H439       C1066   1.109       .  S
C441        C442   1.409       .  A
C441        C446   1.405       .  A
C441        H448   1.084       .  S
C442        C443   1.416   1_565  A
C443        C444   1.403       .  A
C443        C450   1.508       .  S
C444        C445   1.403   1_545  A
C444       H1081   1.084       .  S
C445        C446   1.407       .  A
C446        C447   1.506       .  S
C447        H451   1.111       .  S
C447        H452   1.109       .  S
C447        H453   1.110       .  S
H449       C1076   1.084       .  S
C450        H454   1.110       .  S
C450        H455   1.110       .  S
C450       H1088   1.111       .  S
H456       C1082   1.111       .  S
C457        C458   1.405       .  A
C457        C462   1.408       .  A
C457        H464   1.084       .  S
C458        C459   1.410       .  A
C459        C460   1.399       .  A
C459        C466   1.504   1_565  S
C460        C461   1.403       .  A
C460        H465   1.084   1_565  S
C461        C462   1.415       .  A
C462        C463   1.506       .  S
C463        H467   1.111       .  S
C463        H468   1.109       .  S
C463        H469   1.110       .  S
C466        H470   1.105       .  S
C466        H471   1.110       .  S
C466        H472   1.111       .  S
C473        C474   1.405       .  A
C473        C478   1.412       .  A
C473        H480   1.084       .  S
C474        C475   1.414   1_545  A
C475        C476   1.406       .  A
C475        C482   1.507       .  S
C476        C477   1.403       .  A
C476        H481   1.084       .  S
C477        C478   1.417   1_565  A
C478        C479   1.503       .  S
C479        H483   1.110       .  S
C479        H484   1.106       .  S
C479        H485   1.110       .  S
C482        H486   1.110       .  S
C482        H487   1.110       .  S
C482        H488   1.111       .  S
C489        C490   1.404   1_565  A
C489        C494   1.404       .  A
C489        H496   1.085       .  S
C490        C491   1.407       .  A
C491        C492   1.404       .  A
C491        C498   1.506       .  S
C492        C493   1.409       .  A
C492        H497   1.084       .  S
C493        C494   1.415   1_545  A
C494        C495   1.507       .  S
C495        H499   1.111       .  S
C495        H500   1.110       .  S
C495        H501   1.110       .  S
C498        H503   1.109       .  S
C498       H1134   1.110       .  S
C498       H1136   1.111       .  S
H502       C1130   1.110       .  S
H504       C1130   1.111       .  S
C505        C506   1.399       .  A
C505        C510   1.402       .  A
C505        H512   1.082   1_545  S
C506        C507   1.413       .  A
C507        C508   1.402       .  A
C507        C514   1.506       .  S
C508        C509   1.402       .  A
C508        H513   1.084       .  S
C509        C510   1.417       .  A
C510        C511   1.509   1_545  S
C511        H515   1.111       .  S
C511        H516   1.110       .  S
C511        H517   1.109       .  S
C514        H518   1.109       .  S
C514        H519   1.110       .  S
C514        H520   1.110       .  S
C521        C522   1.403       .  A
C521        C526   1.408       .  A
C521        H528   1.084       .  S
C522        C523   1.415   1_545  A
C523        C524   1.415       .  A
C523        C530   1.504       .  S
C524        C525   1.408   1_565  A
C524        H529   1.084       .  S
C525        C526   1.416       .  A
C526        C527   1.507       .  S
C527        H531   1.111       .  S
C527        H532   1.110       .  S
C527        H533   1.110       .  S
C530        H534   1.107       .  S
C530        H535   1.106       .  S
C530        H536   1.111       .  S
C537        C538   1.405   1_655  A
C537        C542   1.410       .  A
C537        H544   1.084       .  S
C538        C539   1.412       .  A
C539        C540   1.397       .  A
C539        C546   1.510       .  S
C540        C541   1.405   1_455  A
C540        H545   1.084       .  S
C541        C542   1.415       .  A
C542        C543   1.505       .  S
C543        H547   1.111       .  S
C543        H548   1.109       .  S
C543        H549   1.110       .  S
C546        H550   1.108       .  S
C546        H551   1.108       .  S
C546        H552   1.111       .  S
C553        C554   1.403       .  A
C553        C558   1.414       .  A
C553        H560   1.082   1_455  S
C554        C555   1.416       .  A
C555        C556   1.408       .  A
C555        C562   1.504       .  S
C556        C557   1.405       .  A
C556        H561   1.084       .  S
C557        C558   1.419       .  A
C558        C559   1.506   1_455  S
C559        H563   1.111       .  S
C559        H564   1.110       .  S
C559        H565   1.110       .  S
C562        H566   1.108       .  S
C562        H567   1.110       .  S
C562        H568   1.110       .  S
C569        C570   1.398       .  A
C569        C574   1.405   1_455  A
C569        H576   1.084   1_455  S
C570        C571   1.409       .  A
C571        C572   1.403       .  A
C571        C578   1.507       .  S
C572        C573   1.408       .  A
C572        H577   1.083       .  S
C573        C574   1.427   1_455  A
C574        C575   1.509       .  S
C575        H579   1.111       .  S
C575        H580   1.109       .  S
C575        H581   1.110       .  S
C578        H582   1.109       .  S
C578        H583   1.110       .  S
C578        H584   1.111       .  S
C585        C586   1.398       .  A
C585        C590   1.405       .  A
C585        H592   1.084       .  S
C586        C587   1.416   1_655  A
C587        C588   1.405       .  A
C587        C594   1.507       .  S
C588        C589   1.401   1_455  A
C588        H593   1.084       .  S
C589        C590   1.419       .  A
C590        C591   1.508       .  S
C591        H595   1.111       .  S
C591        H596   1.110       .  S
C591        H597   1.109       .  S
C594        H599   1.110       .  S
C594        H600   1.110       .  S
C594       H1230   1.108       .  S
H598       C1226   1.107       .  S
C601        C602   1.401   1_455  A
C601        C606   1.410   1_455  A
C601        H608   1.082       .  S
C602        C603   1.414       .  A
C603        C604   1.413       .  A
C603        C610   1.504       .  S
C604        C605   1.405       .  A
C604        H609   1.084       .  S
C605        C606   1.418       .  A
C606        C607   1.506   1_655  S
C607        H611   1.111       .  S
C607        H612   1.110       .  S
C607        H613   1.110       .  S
C610        H614   1.108       .  S
C610        H615   1.109       .  S
C610        H616   1.111       .  S
C617        C618   1.404       .  A
C617        C622   1.412       .  A
C617        H624   1.084       .  S
C618        C619   1.412   1_655  A
C619        C620   1.402       .  A
C619       C1258   1.507       .  S
C620        C621   1.409   1_455  A
C620        H625   1.084       .  S
C621        C622   1.422       .  A
C622        C623   1.507       .  S
C623        H627   1.111       .  S
C623        H628   1.110       .  S
C623        H629   1.110       .  S
C626       C1251   1.507       .  S
C626        H630   1.110       .  S
C626        H631   1.104       .  S
C626        H632   1.110       .  S
N633        C634   1.363       .  A
N633       C1234   1.448       .  S
C634       C1250   1.480       .  S
C635        C636   1.368       .  A
C635        H638   1.083       .  S
C636        C637   1.378       .  A
C636        H639   1.082       .  S
C637       C1218   1.477       .  S
N640        C641   1.358       .  A
N640       C1186   1.447       .  S
C641       C1202   1.472       .  S
C642        C643   1.362       .  A
C642        H645   1.083       .  S
C643        C644   1.380       .  A
C643        H646   1.083       .  S
C644       C1170   1.473       .  S
N647        C648   1.359       .  A
N647       C1154   1.447       .  S
C648       C1122   1.470       .  S
C649        C650   1.364       .  A
C649        H652   1.083       .  S
C650        C651   1.382       .  A
C650        H653   1.082       .  S
C651       C1138   1.480       .  S
N654        C655   1.360       .  A
N654       C1109   1.448       .  S
C655       C1077   1.474       .  S
C656        C657   1.367       .  A
C656        H659   1.082       .  S
C657        C658   1.379       .  A
C657        H660   1.082       .  S
C658       C1090   1.476       .  S
N661        C662   1.360       .  A
N661       C1058   1.449       .  S
C662       C1026   1.472       .  S
C663        C664   1.365       .  A
C663        H666   1.083       .  S
C664        C665   1.378       .  A
C664        H667   1.082       .  S
C665       C1042   1.475       .  S
N668        C669   1.360       .  A
N668       C1010   1.449       .  S
C669        C981   1.470       .  S
C670        C671   1.364       .  A
C670        H673   1.083       .  S
C671        C672   1.378       .  A
C671        H674   1.082       .  S
C672        C994   1.474       .  S
N675        C676   1.362       .  A
N675        C946   1.452       .  S
C676        C965   1.470       .  S
C677        C678   1.362       .  A
C677        H680   1.083       .  S
C678        C679   1.379       .  A
C678        H681   1.083       .  S
C679        C933   1.474       .  S
N682        C683   1.362       .  A
N682        C898   1.456       .  S
C683        C914   1.473       .  S
C684        C685   1.364       .  A
C684        H687   1.083       .  S
C685        C686   1.380       .  A
C685        H688   1.082       .  S
C686        C882   1.471       .  S
O689       Mg691   2.139       .  S
O689       Mg697   2.139       .  S
O689        C724   1.240       .  S
C690        H729   1.082       .  S
C690        O703   1.238       .  S
C690        O727   1.273       .  A
Mg691       O720   2.125       .  S
Mg691       O735   2.301       .  S
Mg691       O731   2.278       .  S
Mg691       O702   2.303       .  S
O692       Mg734   2.120       .  S
O692       Mg717   2.120       .  S
O692        C713   1.241       .  S
O693        C724   1.274       .  A
O693       Mg717   2.312       .  S
C694        C997   1.474       .  S
C694        O696   1.271       .  A
C694        O708   1.274       .  A
O695        C723   1.274       .  A
O695       Mg697   2.301       .  S
O696       Mg728   2.242       .  S
Mg697       O703   2.140       .  S
Mg697       O711   2.257       .  S
Mg697       O699   2.327       .  S
C698        C917   1.493       .  S
C698        O736   1.271       .  A
C698        O704   1.275       .  A
O699        C706   1.276       .  A
H700        C713   1.081       .  S
C701        H726   1.081       .  S
C701        O715   1.241       .  S
C701        O716   1.276       .  A
O702        C725   1.272       .  A
O703       Mg717   2.127       .  S
O704       Mg734   2.327       .  S
C705       C1061   1.492       .  S
C705        O718   1.273       .  A
C705        O710   1.280       .  A
C706       C1045   1.478       .  S
C706        O733   1.272       .  A
Mg707       O714   2.134       .  S
Mg707       O715   2.123       .  S
Mg707       O708   2.316       .  S
Mg707       O709   2.309       .  S
Mg707       O736   2.244       .  S
O709        C713   1.275       .  A
O710       Mg717   2.359       .  S
O711        C730   1.271       .  A
O712        C732   1.280       .  A
O712       Mg728   2.358       .  S
O714       Mg728   2.124       .  S
O714        C725   1.238       .  S
O715       Mg734   2.141       .  S
O716       Mg728   2.319       .  S
Mg717       O733   2.244       .  S
O718       Mg734   2.271       .  S
H719        C724   1.081       .  S
O720       Mg728   2.115       .  S
O720        C723   1.241       .  S
H721        C723   1.081       .  S
H722        C725   1.082       .  S
O727       Mg734   2.307       .  S
C730        C962   1.482       .  S
C730        O735   1.275       .  A
O731        C732   1.273       .  A
C732       C1013   1.491       .  S
O737       Mg739   2.143       .  S
O737       Mg745   2.136       .  S
O737        C772   1.241   1_545  S
C738        H777   1.081       .  S
C738        O751   1.238       .  S
C738        O775   1.272       .  A
Mg739       O768   2.128       .  S
Mg739       O783   2.325       .  S
Mg739       O779   2.282       .  S
Mg739       O750   2.304   1_545  S
O740       Mg782   2.128       .  S
O740       Mg765   2.119       .  S
O740        C761   1.240       .  S
O741        C772   1.275       .  A
O741       Mg765   2.312       .  S
C742       C1093   1.486       .  S
C742        O744   1.274       .  A
C742        O756   1.274       .  A
O743        C771   1.273       .  A
O743       Mg745   2.300       .  S
O744       Mg776   2.260   1_565  S
Mg745       O751   2.126       .  S
Mg745       O759   2.232       .  S
Mg745       O747   2.298       .  S
C746       C1029   1.483       .  S
C746        O784   1.271       .  A
C746        O752   1.276       .  A
O747        C754   1.272       .  A
H748        C761   1.081       .  S
C749        H774   1.081       .  S
C749        O763   1.241   1_545  S
C749        O764   1.276       .  A
O750        C773   1.272       .  A
O751       Mg765   2.132   1_545  S
O752       Mg782   2.314       .  S
C753       C1157   1.492   1_565  S
C753        O766   1.275       .  A
C753        O758   1.281   1_565  A
C754       C1141   1.476       .  S
C754        O781   1.273       .  A
Mg755       O762   2.137       .  S
Mg755       O763   2.137       .  S
Mg755       O756   2.311       .  S
Mg755       O757   2.301       .  S
Mg755       O784   2.257       .  S
O757        C761   1.274       .  A
O758       Mg765   2.355   1_545  S
O759        C778   1.269       .  A
O760        C780   1.281       .  A
O760       Mg776   2.356       .  S
O762       Mg776   2.127   1_565  S
O762        C773   1.238       .  S
O763       Mg782   2.145       .  S
O764       Mg776   2.315       .  S
Mg765       O781   2.267   1_565  S
O766       Mg782   2.290       .  S
H767        C772   1.081       .  S
O768       Mg776   2.123       .  S
O768        C771   1.240       .  S
H769        C771   1.081       .  S
H770        C773   1.081       .  S
O775       Mg782   2.301   1_545  S
C778        C978   1.478       .  S
C778        O783   1.276       .  A
O779        C780   1.274       .  A
C780       C1106   1.488       .  S
O785       Mg787   2.133   1_565  S
O785       Mg793   2.131       .  S
O785        C820   1.242   1_455  S
C786        H825   1.082       .  S
C786        O799   1.238       .  S
C786        O823   1.271       .  A
Mg787       O816   2.130       .  S
Mg787       O831   2.310       .  S
Mg787       O827   2.269       .  S
Mg787       O798   2.312   1_455  S
O788       Mg830   2.127       .  S
O788       Mg813   2.116       .  S
O788        C809   1.240       .  S
O789        C820   1.276       .  A
O789       Mg813   2.312       .  S
C790       C1173   1.479       .  S
C790        O792   1.269       .  A
C790        O804   1.273       .  A
O791        C819   1.275   1_565  A
O791       Mg793   2.309       .  S
O792       Mg824   2.240   1_655  S
Mg793       O799   2.129       .  S
Mg793       O807   2.255       .  S
Mg793       O795   2.321       .  S
C794       C1125   1.484       .  S
C794        O832   1.273       .  A
C794        O800   1.276   1_545  A
O795        C802   1.276       .  A
H796        C809   1.081       .  S
C797        H822   1.081       .  S
C797        O811   1.241   1_455  S
C797        O812   1.277       .  A
O798        C821   1.272       .  A
O799       Mg813   2.124   1_455  S
O800       Mg830   2.317       .  S
C801       C1237   1.488       .  S
C801        O814   1.276       .  A
C801        O806   1.281       .  A
C802       C1221   1.485   1_455  S
C802        O829   1.272   1_455  A
Mg803       O810   2.154       .  S
Mg803       O811   2.131       .  S
Mg803       O804   2.321       .  S
Mg803       O805   2.298       .  S
Mg803       O832   2.250       .  S
O805        C809   1.274   1_545  A
O806       Mg813   2.351       .  S
O807        C826   1.272       .  A
O808        C828   1.281       .  A
O808       Mg824   2.367       .  S
O810       Mg824   2.117   1_655  S
O810        C821   1.237       .  S
O811       Mg830   2.142   1_545  S
O812       Mg824   2.327       .  S
Mg813       O829   2.256       .  S
O814       Mg830   2.291       .  S
H815        C820   1.081       .  S
O816       Mg824   2.125       .  S
O816        C819   1.241       .  S
H817        C819   1.081       .  S
H818        C821   1.082       .  S
O823       Mg830   2.297   1_455  S
C826       C1074   1.490       .  S
C826        O831   1.273   1_565  A
O827        C828   1.272       .  A
C828       C1189   1.494       .  S
O833       Mg835   2.146   1_655  S
O833       Mg841   2.131       .  S
O833        C868   1.243       .  S
C834        H873   1.081       .  S
C834        O847   1.237       .  S
C834        O871   1.270       .  A
Mg835       O864   2.124       .  S
Mg835       O879   2.335       .  S
Mg835       O875   2.296       .  S
Mg835       O846   2.311       .  S
O836       Mg878   2.135       .  S
O836       Mg861   2.107       .  S
O836        C857   1.240       .  S
O837        C868   1.278       .  A
O837       Mg861   2.322       .  S
C838        C930   1.480       .  S
C838        O840   1.274       .  A
C838        O852   1.273       .  A
O839        C867   1.274       .  A
O839       Mg841   2.305   1_455  S
O840       Mg872   2.257       .  S
Mg841       O847   2.128       .  S
Mg841       O855   2.247       .  S
Mg841       O843   2.304       .  S
C842       C1253   1.500       .  S
C842        O880   1.274   1_655  A
C842        O848   1.276       .  A
O843        C850   1.272       .  A
H844        C857   1.081       .  S
C845        H870   1.081       .  S
C845        O859   1.241       .  S
C845        O860   1.275       .  A
O846        C869   1.273       .  A
O847       Mg861   2.123       .  S
O848       Mg878   2.319       .  S
C849        C901   1.509       .  S
C849        O862   1.277       .  A
C849        O854   1.282       .  A
C850        C885   1.496       .  S
C850        O877   1.273       .  A
Mg851       O858   2.152       .  S
Mg851       O859   2.142       .  S
Mg851       O852   2.301       .  S
Mg851       O853   2.290   1_455  S
Mg851       O880   2.269       .  S
O853        C857   1.272       .  A
O854       Mg861   2.356       .  S
O855        C874   1.269   1_655  A
O856        C876   1.282       .  A
O856       Mg872   2.363       .  S
O858       Mg872   2.133       .  S
O858        C869   1.238       .  S
O859       Mg878   2.138   1_455  S
O860       Mg872   2.311       .  S
Mg861       O877   2.253       .  S
O862       Mg878   2.292       .  S
H863        C868   1.081       .  S
O864       Mg872   2.122       .  S
O864        C867   1.241       .  S
H865        C867   1.081       .  S
H866        C869   1.081       .  S
O871       Mg878   2.298       .  S
C874       C1205   1.498       .  S
C874        O879   1.279       .  A
O875        C876   1.276       .  A
C876        C949   1.493       .  S
C881        C882   1.398       .  A
C881        C886   1.408       .  A
C881        H888   1.084       .  S
C882        C883   1.412       .  A
C883        C884   1.396       .  A
C883        C890   1.510       .  S
C884        C885   1.407       .  A
C884        H889   1.084       .  S
C885        C886   1.426       .  A
C886        C887   1.507       .  S
C887        H891   1.111       .  S
C887        H892   1.109       .  S
C887        H893   1.110       .  S
C890        H894   1.108       .  S
C890        H896   1.110       .  S
C897        C898   1.405       .  A
C897        C902   1.411       .  A
C897        H904   1.082       .  S
C898        C899   1.415       .  A
C899        C900   1.412       .  A
C899        C906   1.502       .  S
C900        C901   1.412       .  A
C900        H905   1.084       .  S
C901        C902   1.423       .  A
C902        C903   1.508       .  S
C903        H907   1.111       .  S
C903        H908   1.110       .  S
C903        H909   1.110       .  S
C906        H910   1.106   1_556  S
C906        H911   1.110       .  S
C906        H912   1.110   1_556  S
C913        C914   1.403       .  A
C913        C918   1.410       .  A
C914        C915   1.409       .  A
C915        C916   1.396       .  A
C915        C922   1.508       .  S
C916        C917   1.408       .  A
C916        H921   1.084       .  S
C917        C918   1.420       .  A
C918        C919   1.506       .  S
C919        H924   1.110       .  S
C919        H925   1.110       .  S
C922        H926   1.108       .  S
C922        H927   1.110       .  S
C922        H928   1.111       .  S
C929        C930   1.403       .  A
C929        C934   1.399       .  A
C929        H936   1.085       .  S
C930        C931   1.415       .  A
C931        C932   1.407       .  A
C931        C938   1.507       .  S
C932        C933   1.404       .  A
C932        H937   1.084       .  S
C933        C934   1.410       .  A
C934        C935   1.504       .  S
C935        H939   1.111       .  S
C935        H941   1.110       .  S
C938        H942   1.110       .  S
C938        H943   1.110       .  S
C938        H944   1.111       .  S
C945        C946   1.404       .  A
C945        C950   1.408       .  A
C945        H952   1.084       .  S
C946        C947   1.418       .  A
C947        C948   1.415       .  A
C947        C954   1.505       .  S
C948        C949   1.406       .  A
C948        H953   1.084       .  S
C949        C950   1.415       .  A
C950        C951   1.507       .  S
C951        H955   1.111       .  S
C951        H956   1.110       .  S
C951        H957   1.110       .  S
C954        H958   1.106       .  S
C954        H960   1.110       .  S
C961        C962   1.402       .  A
C961        C966   1.398       .  A
C961        H968   1.084       .  S
C962        C963   1.421       .  A
C963        C964   1.406       .  A
C963        C970   1.508       .  S
C964        C965   1.398       .  A
C964        H969   1.084       .  S
C965        C966   1.415       .  A
C967        H971   1.110   1_556  S
C967        H972   1.110       .  S
C967        H973   1.108       .  S
C970        H974   1.109       .  S
C970        H975   1.110       .  S
C970        H976   1.111       .  S
C977        C978   1.401       .  A
C977        C982   1.396       .  A
C977        H984   1.085       .  S
C978        C979   1.417       .  A
C979        C980   1.408       .  A
C979        C986   1.506       .  S
C980        C981   1.401       .  A
C980        H985   1.084       .  S
C981        C982   1.415       .  A
C982        C983   1.512       .  S
C983        H987   1.111       .  S
C983        H988   1.106       .  S
C986        H990   1.110       .  S
C986        H991   1.109       .  S
C986        H992   1.111       .  S
C993        C994   1.405       .  A
C993        C998   1.407       .  A
C993       H1000   1.083       .  S
C994        C995   1.409       .  A
C995        C996   1.399       .  A
C995       C1002   1.508       .  S
C996        C997   1.404       .  A
C996       H1001   1.085       .  S
C997        C998   1.410       .  A
C998        C999   1.505       .  S
C999       H1003   1.111       .  S
C999       H1004   1.110       .  S
C999       H1005   1.110       .  S
C1002      H1006   1.109       .  S
C1002      H1007   1.109       .  S
C1002      H1008   1.111       .  S
C1009      C1010   1.404       .  A
C1009      C1014   1.409       .  A
C1009      H1016   1.083       .  S
C1010      C1011   1.413       .  A
C1011      C1012   1.412       .  A
C1011      C1018   1.500       .  S
C1012      C1013   1.406       .  A
C1012      H1017   1.084       .  S
C1013      C1014   1.415       .  A
C1014      C1015   1.507       .  S
C1015      H1019   1.111       .  S
C1015      H1020   1.109       .  S
C1015      H1021   1.110       .  S
C1018      H1022   1.108       .  S
C1018      H1023   1.107       .  S
C1018      H1024   1.111       .  S
C1025      C1026   1.403       .  A
C1025      C1030   1.402       .  A
C1026      C1027   1.407       .  A
C1027      C1028   1.405       .  A
C1027      C1034   1.505       .  S
C1028      C1029   1.408       .  A
C1028      H1033   1.084       .  S
C1029      C1030   1.416       .  A
C1030      C1031   1.508       .  S
C1031      H1036   1.109       .  S
C1031      H1037   1.110       .  S
C1034      H1038   1.111       .  S
C1034      H1039   1.110       .  S
C1034      H1040   1.111       .  S
C1041      C1042   1.406       .  A
C1041      C1046   1.409       .  A
C1041      H1048   1.083       .  S
C1042      C1043   1.411       .  A
C1043      C1044   1.398       .  A
C1043      C1050   1.508       .  S
C1044      C1045   1.404       .  A
C1044      H1049   1.085       .  S
C1045      C1046   1.411       .  A
C1046      C1047   1.506       .  S
C1047      H1051   1.111       .  S
C1047      H1052   1.111       .  S
C1047      H1053   1.110       .  S
C1050      H1056   1.110       .  S
C1057      C1058   1.405       .  A
C1057      C1062   1.406       .  A
C1057      H1064   1.082       .  S
C1058      C1059   1.411       .  A
C1059      C1060   1.413       .  A
C1059      C1066   1.502       .  S
C1060      C1061   1.408       .  A
C1060      H1065   1.084       .  S
C1061      C1062   1.415       .  A
C1062      C1063   1.507       .  S
C1063      H1067   1.111       .  S
C1063      H1068   1.110       .  S
C1063      H1069   1.108       .  S
C1066      H1070   1.107       .  S
C1066      H1072   1.111       .  S
C1073      C1074   1.409       .  A
C1073      C1078   1.404       .  A
C1073      H1080   1.084       .  S
C1074      C1075   1.418   1_565  A
C1075      C1076   1.404       .  A
C1075      C1082   1.508       .  S
C1076      C1077   1.403   1_545  A
C1077      C1078   1.407       .  A
C1078      C1079   1.506       .  S
C1079      H1083   1.111       .  S
C1079      H1084   1.110       .  S
C1079      H1085   1.110       .  S
C1082      H1086   1.110       .  S
C1082      H1087   1.110       .  S
C1089      C1090   1.403       .  A
C1089      C1094   1.409       .  A
C1089      H1096   1.084       .  S
C1090      C1091   1.410       .  A
C1091      C1092   1.400       .  A
C1091      C1098   1.506   1_565  S
C1092      C1093   1.405       .  A
C1092      H1097   1.084   1_565  S
C1093      C1094   1.417       .  A
C1094      C1095   1.506       .  S
C1095      H1099   1.111       .  S
C1095      H1100   1.109       .  S
C1095      H1101   1.110       .  S
C1098      H1102   1.106       .  S
C1098      H1103   1.110       .  S
C1098      H1104   1.111       .  S
C1105      C1106   1.405       .  A
C1105      C1110   1.411       .  A
C1105      H1112   1.084       .  S
C1106      C1107   1.414   1_545  A
C1107      C1108   1.406       .  A
C1107      C1114   1.507       .  S
C1108      C1109   1.403       .  A
C1108      H1113   1.084       .  S
C1109      C1110   1.418   1_565  A
C1110      C1111   1.503       .  S
C1111      H1115   1.110       .  S
C1111      H1116   1.106       .  S
C1111      H1117   1.111       .  S
C1114      H1118   1.110       .  S
C1114      H1119   1.110       .  S
C1114      H1120   1.111       .  S
C1121      C1122   1.403       .  A
C1121      C1126   1.403   1_545  A
C1121      H1128   1.085   1_545  S
C1122      C1123   1.407       .  A
C1123      C1124   1.402       .  A
C1123      C1130   1.506       .  S
C1124      C1125   1.408       .  A
C1124      H1129   1.084       .  S
C1125      C1126   1.415   1_545  A
C1126      C1127   1.507       .  S
C1127      H1131   1.111       .  S
C1127      H1132   1.110       .  S
C1127      H1133   1.110       .  S
C1130      H1135   1.109       .  S
C1137      C1138   1.400       .  A
C1137      C1142   1.403       .  A
C1137      H1144   1.079   1_545  S
C1138      C1139   1.418       .  A
C1139      C1140   1.404       .  A
C1139      C1146   1.507       .  S
C1140      C1141   1.401       .  A
C1140      H1145   1.084       .  S
C1141      C1142   1.415       .  A
C1142      C1143   1.508   1_545  S
C1143      H1147   1.111       .  S
C1143      H1148   1.110       .  S
C1143      H1149   1.109       .  S
C1146      H1150   1.109       .  S
C1146      H1151   1.111       .  S
C1146      H1152   1.110       .  S
C1153      C1154   1.401       .  A
C1153      C1158   1.406       .  A
C1153      H1160   1.084       .  S
C1154      C1155   1.413   1_545  A
C1155      C1156   1.414       .  A
C1155      C1162   1.503       .  S
C1156      C1157   1.408   1_565  A
C1156      H1161   1.084       .  S
C1157      C1158   1.416       .  A
C1158      C1159   1.507       .  S
C1159      H1163   1.111       .  S
C1159      H1164   1.109       .  S
C1159      H1165   1.110       .  S
C1162      H1166   1.108   1_556  S
C1162      H1167   1.107       .  S
C1162      H1168   1.111       .  S
C1169      C1170   1.405   1_655  A
C1169      C1174   1.410       .  A
C1169      H1176   1.084       .  S
C1170      C1171   1.412       .  A
C1171      C1172   1.395       .  A
C1171      C1178   1.510       .  S
C1172      C1173   1.403   1_455  A
C1172      H1177   1.085       .  S
C1173      C1174   1.415       .  A
C1174      C1175   1.506       .  S
C1175      H1179   1.111       .  S
C1175      H1180   1.109       .  S
C1175      H1181   1.111       .  S
C1178      H1182   1.105       .  S
C1178      H1183   1.108       .  S
C1178      H1184   1.111       .  S
C1185      C1186   1.403       .  A
C1185      C1190   1.414       .  A
C1185      H1192   1.083   1_455  S
C1186      C1187   1.416       .  A
C1187      C1188   1.407       .  A
C1187      C1194   1.506       .  S
C1188      C1189   1.405       .  A
C1188      H1193   1.084       .  S
C1189      C1190   1.418       .  A
C1190      C1191   1.506   1_455  S
C1191      H1195   1.111       .  S
C1191      H1196   1.110       .  S
C1191      H1197   1.111       .  S
C1194      H1198   1.108       .  S
C1194      H1199   1.110       .  S
C1194      H1200   1.110       .  S
C1201      C1202   1.399   1_655  A
C1201      C1206   1.406       .  A
C1201      H1208   1.085       .  S
C1202      C1203   1.407       .  A
C1203      C1204   1.404       .  A
C1203      C1210   1.507       .  S
C1204      C1205   1.409       .  A
C1204      H1209   1.083       .  S
C1205      C1206   1.426   1_455  A
C1206      C1207   1.508       .  S
C1207      H1211   1.111       .  S
C1207      H1212   1.109       .  S
C1207      H1213   1.110       .  S
C1210      H1214   1.110       .  S
C1210      H1215   1.111       .  S
C1210      H1216   1.111       .  S
C1217      C1218   1.399       .  A
C1217      C1222   1.403       .  A
C1217      H1224   1.083       .  S
C1218      C1219   1.415   1_655  A
C1219      C1220   1.405       .  A
C1219      C1226   1.506       .  S
C1220      C1221   1.403   1_455  A
C1220      H1225   1.084       .  S
C1221      C1222   1.420       .  A
C1222      C1223   1.509       .  S
C1223      H1227   1.111       .  S
C1223      H1228   1.110       .  S
C1223      H1229   1.109       .  S
C1226      H1231   1.110       .  S
C1226      H1232   1.110       .  S
C1233      C1234   1.402       .  A
C1233      C1238   1.409       .  A
C1233      H1240   1.082   1_655  S
C1234      C1235   1.415       .  A
C1235      C1236   1.411       .  A
C1235      C1242   1.503       .  S
C1236      C1237   1.403       .  A
C1236      H1241   1.084       .  S
C1237      C1238   1.416       .  A
C1238      C1239   1.506   1_655  S
C1239      H1243   1.111       .  S
C1239      H1244   1.110       .  S
C1239      H1245   1.110       .  S
C1242      H1246   1.110       .  S
C1242      H1247   1.107       .  S
C1242      H1248   1.111       .  S
C1249      C1250   1.403       .  A
C1249      C1254   1.408       .  A
C1249      H1256   1.083       .  S
C1250      C1251   1.413   1_655  A
C1251      C1252   1.403       .  A
C1252      C1253   1.409   1_455  A
C1252      H1257   1.084       .  S
C1253      C1254   1.422       .  A
C1254      C1255   1.509       .  S
C1255      H1259   1.111       .  S
C1255      H1260   1.110       .  S
C1255      H1261   1.111       .  S
C1258      H1262   1.111       .  S
C1258      H1263   1.105       .  S
C1258      H1264   1.110       .  S
