geometry optimzed in LAMMPS
_audit_creation_date              2020-12-01 
_audit_creation_method            'lammps2cif' 
_symmetry_space_group_name_H-M    'P1' 
_symmetry_Int_Tables_number       1 
_symmetry_cell_setting            triclinic 
loop_ 
_symmetry_equiv_pos_as_xyz 
  x,y,z 
_cell_length_a                    46.22611452 
_cell_length_b                    46.568152301092766 
_cell_length_c                    29.807365825496802 
_cell_angle_alpha                 89.58938268702819 
_cell_angle_beta                  90.0926177320809 
_cell_angle_gamma                 121.23502079538812 
loop_ 
_atom_site_label 
_atom_site_type_symbol 
_atom_site_fract_x 
_atom_site_fract_y 
_atom_site_fract_z 
_atom_site_charge 
N1          N  0.14379251  0.35254993  0.45319491    -0.25700
N2          N  0.15105498  0.38262645  0.43908920    -0.33600
C3          C  0.13027573  0.37918651  0.40538440     0.02600
C4          C  0.10883387  0.34550743  0.39722428     0.08700
C5          C  0.11800323  0.32912017  0.42813295    -0.04400
H6          H  0.13097438  0.39991792  0.38770052     0.09300
H7          H  0.10673292  0.30229858  0.43231346     0.10500
Cu8        Cu  0.18932095  0.42842474  0.46258304     0.44200
Cu9        Cu  0.16983493  0.34530400  0.50586182     0.42000
Cu10       Cu  0.24603657  0.42468852  0.53550706     0.43900
N11         N  0.23180806  0.47146125  0.48531850    -0.33100
N12         N  0.25383323  0.46984282  0.51172649    -0.27300
C13         C  0.27900236  0.50111103  0.52134373    -0.03400
C14         C  0.27232363  0.52355271  0.50020542     0.08800
C15         C  0.24218036  0.50389083  0.47742453     0.02600
H16         H  0.30020974  0.50706746  0.54293869     0.10200
H17         H  0.22876190  0.51234040  0.45670018     0.09300
N18         N  0.23168875  0.37902101  0.56506046    -0.34500
N19         N  0.20392230  0.34993592  0.55626487    -0.26700
C20         C  0.20289389  0.32632829  0.58415111    -0.02000
C21         C  0.23149135  0.34168625  0.61130152     0.06600
C22         C  0.24890589  0.37485133  0.59803734     0.04700
H23         H  0.18305254  0.30012042  0.58441978     0.09800
H24         H  0.27247669  0.39479936  0.61172945     0.08700
N25         N  0.37578479  0.15705436  0.04829264    -0.25700
N26         N  0.40399083  0.15657241  0.05245911    -0.33600
C27         C  0.39914471  0.13280077  0.08236718     0.02600
C28         C  0.36635047  0.11750508  0.09804479     0.08700
C29         C  0.35210504  0.13347336  0.07575343    -0.04400
H30         H  0.41835778  0.12744315  0.09256039     0.09300
H31         H  0.32661485  0.12850728  0.07918876     0.10500
Cu32       Cu  0.44872815  0.18964304  0.02025835     0.44200
Cu33       Cu  0.37199033  0.19009486  0.00482995     0.42000
Cu34       Cu  0.45306545  0.25684726  0.95623336     0.43900
N35         N  0.49356848  0.22939352  0.99603895    -0.33100
N36         N  0.49587591  0.25512740  0.97375415    -0.27300
C37         C  0.52887151  0.27798750  0.96645852    -0.03400
C38         C  0.54801295  0.26579869  0.98525839     0.08800
C39         C  0.52470940  0.23496001  0.00343301     0.02600
H40         H  0.53808626  0.30180383  0.94951471     0.10200
H41         H  0.53004517  0.21822751  0.02212199     0.09300
N42         N  0.40550343  0.24855283  0.93915344    -0.34500
N43         N  0.37639509  0.22425372  0.95587888    -0.26700
C44         C  0.35079192  0.22452949  0.93461893    -0.02000
C45         C  0.36443352  0.25027938  0.90310605     0.06600
C46         C  0.39908418  0.26503196  0.90718284     0.04700
H47         H  0.32428387  0.20693408  0.94127421     0.09800
H48         H  0.41827820  0.28559297  0.88721723     0.08700
N49         N  0.15111273  0.36409091  0.05727197    -0.25700
N50         N  0.15664379  0.39362668  0.07044637    -0.33600
C51         C  0.13413267  0.38867580  0.10259471     0.02600
C52         C  0.11362528  0.35457757  0.11039296     0.08700
C53         C  0.12504338  0.33964902  0.08101393    -0.04400
H54         H  0.13305286  0.40857238  0.11956709     0.09300
H55         H  0.11522121  0.31308672  0.07700757     0.09300
Cu56       Cu  0.19530436  0.44013408  0.04687762     0.44200
Cu57       Cu  0.17927223  0.35797694  0.00804157     0.42000
Cu58       Cu  0.25432664  0.43620838  0.97556020     0.43900
N59         N  0.23819294  0.48295288  0.02199571    -0.33100
N60         N  0.26048324  0.48108117  0.99651564    -0.27300
C61         C  0.28529789  0.51218623  0.98496209    -0.03400
C62         C  0.27835797  0.53494067  0.00384329     0.08800
C63         C  0.24823540  0.51553529  0.02729155     0.02600
H64         H  0.30642474  0.51778852  0.96336131     0.10200
H65         H  0.23442247  0.52424613  0.04639497     0.09300
N66         N  0.24101435  0.39020639  0.94918494    -0.34500
N67         N  0.21337286  0.36143596  0.95978377    -0.26700
C68         C  0.21193437  0.33694521  0.93423408    -0.02000
C69         C  0.24013486  0.35132962  0.90644278     0.06600
C70         C  0.25788068  0.38495276  0.91694423     0.04700
H71         H  0.19185261  0.31085513  0.93572507     0.09800
H72         H  0.28118720  0.40439139  0.90172146     0.08700
N73         N  0.84181115  0.21528240  0.44990008    -0.25700
N74         N  0.83644820  0.23881227  0.43428631    -0.33600
C75         C  0.85723937  0.25444897  0.39932885     0.02600
C76         C  0.87648533  0.24006418  0.39209680     0.08700
C77         C  0.86609868  0.21527155  0.42483211    -0.04400
H78         H  0.85813799  0.27476780  0.38031238     0.09300
H79         H  0.87569506  0.19872467  0.43044152     0.10500
Cu80       Cu  0.80055362  0.24874930  0.45916627     0.44200
Cu81       Cu  0.81574074  0.18439087  0.50480528     0.42000
Cu82       Cu  0.74890715  0.19614547  0.54880309     0.43900
N83         N  0.76086818  0.25201871  0.48585844    -0.33100
N84         N  0.74149590  0.23220332  0.51870934    -0.27300
C85         C  0.71692622  0.23880766  0.52707267    -0.03400
C86         C  0.72105920  0.26408722  0.49823100     0.08800
C87         C  0.74925671  0.27191809  0.47253297     0.02600
H88         H  0.69719565  0.22582906  0.55192634     0.10200
H89         H  0.76000848  0.28996981  0.44532882     0.09300
N90         N  0.75962476  0.16079340  0.57337484    -0.34500
N91         N  0.78403198  0.15652176  0.55823815    -0.26700
C92         C  0.78346631  0.13131254  0.58167634    -0.02000
C93         C  0.75731503  0.11914515  0.61278751     0.06600
C94         C  0.74284544  0.13840537  0.60637894     0.04700
H95         H  0.80036768  0.12215203  0.57580350     0.09800
H96         H  0.72142194  0.13616047  0.62430335     0.08700
N97         N  0.84359111  0.21470246  0.04723307    -0.25700
N98         N  0.83938687  0.23960714  0.05938760    -0.33600
C99         C  0.86171693  0.25733636  0.09183740     0.02600
C100        C  0.88074308  0.24292918  0.10101647     0.08700
C101        C  0.86861475  0.21590751  0.07204707    -0.04400
H102        H  0.86354147  0.27887934  0.10823148     0.09300
H103        H  0.87720569  0.19836752  0.06912985     0.10500
Cu104      Cu  0.80260199  0.24836969  0.03414521     0.44200
Cu105      Cu  0.81501871  0.17990646  0.99768343     0.42000
Cu106      Cu  0.74484740  0.18727512  0.95815496     0.43900
N107        N  0.76178667  0.24984649  0.00735780    -0.33100
N108        N  0.74000390  0.22650131  0.97985416    -0.27300
C109        C  0.71634046  0.23360687  0.96794092    -0.03400
C110        C  0.72355891  0.26299485  0.98873036     0.08800
C111        C  0.75259864  0.27265455  0.01364109     0.02600
H112        H  0.69569128  0.21874196  0.94515183     0.10200
H113        H  0.76613011  0.29453632  0.03467733     0.09300
N114        N  0.75579563  0.15247399  0.93449841    -0.34500
N115        N  0.78155200  0.14968038  0.94773795    -0.26700
C116        C  0.78155973  0.12518854  0.92381432    -0.02000
C117        C  0.75438481  0.11213647  0.89440747     0.06600
C118        C  0.73873790  0.12999585  0.90225961     0.04700
H119        H  0.79986406  0.11751155  0.92769284     0.09800
H120        H  0.71667796  0.12713948  0.88534833     0.08700
C121        C  0.69644624  0.32880177  0.99260516     0.04700
C122        C  0.66109832  0.31193644  0.98689098    -0.11400
C123        C  0.64456664  0.33009893  0.98151321     0.02200
C124        C  0.66397244  0.36536025  0.98136265    -0.10000
C125        C  0.69921894  0.38248041  0.98751714     0.04700
C126        C  0.71510485  0.36398616  0.99301783    -0.09400
H127        H  0.64664759  0.28484219  0.98665726     0.10300
H128        H  0.65151343  0.37939720  0.97605994     0.07800
H129        H  0.74230606  0.37713572  0.99753029     0.07700
N130        N  0.85883980  0.64736279  0.95547678    -0.25700
N131        N  0.85439863  0.61825093  0.94242189    -0.33600
C132        C  0.87685705  0.62382302  0.90985231     0.02600
C133        C  0.89625045  0.65810917  0.90184667     0.08700
C134        C  0.88413677  0.67218935  0.93136803    -0.04400
H135        H  0.87792128  0.60417119  0.89223278     0.09300
H136        H  0.89254201  0.69853651  0.93435277     0.10500
Cu137      Cu  0.81592928  0.57184352  0.96559618     0.44200
Cu138      Cu  0.82913480  0.65229386  0.00332177     0.42000
Cu139      Cu  0.75512818  0.57433952  0.03805489     0.43900
N140        N  0.77255363  0.52909755  0.98877182    -0.33100
N141        N  0.74985265  0.53013522  0.01447823    -0.27300
C142        C  0.72425106  0.49861545  0.02260007    -0.03400
C143        C  0.73122060  0.47663908  0.00123682     0.08800
C144        C  0.76208120  0.49683918  0.97999553     0.02600
H145        H  0.70223487  0.49216461  0.04279909     0.10200
H146        H  0.77574363  0.48888211  0.95916017     0.09300
N147        N  0.76710856  0.62092628  0.06186691    -0.34500
N148        N  0.79450218  0.64952230  0.05005499    -0.26700
C149        C  0.79564092  0.67469282  0.07353962    -0.02000
C150        C  0.76749738  0.66128226  0.10119258     0.06600
C151        C  0.74999969  0.62708571  0.09288814     0.04700
H152        H  0.81566426  0.70077579  0.07102419     0.09800
H153        H  0.72709852  0.60782341  0.10907498     0.08700
O154        O  0.95631627  0.22860332  0.19966956    -0.71400
O155        O  0.02582398  0.25892421  0.29823943    -0.72300
O156        O  0.95382714  0.22622431  0.29585677    -0.61000
O157        O  0.02837736  0.26195061  0.20223911    -0.69400
O158        O  0.03126421  0.31097878  0.20413031    -0.68900
O159        O  0.95759863  0.27568537  0.29621326    -0.60200
O160        O  0.02927799  0.30823766  0.29902402    -0.72700
O161        O  0.95965083  0.27786133  0.20105274    -0.71500
Cu162      Cu  0.99092866  0.24213617  0.24893544     1.04600
Cu163      Cu  0.99456164  0.29483638  0.25014682     1.04300
C164        C  0.94701628  0.24838369  0.18484142     0.94800
C165        C  0.03861912  0.28849021  0.31405080     0.94000
C166        C  0.94408163  0.24554920  0.31080019     0.86100
C167        C  0.04160060  0.29234948  0.18862675     0.92400
N168        N  0.22937305  0.85711346  0.45305827    -0.25700
N169        N  0.25569766  0.85491755  0.44092812    -0.33600
C170        C  0.27299810  0.87768828  0.40865377     0.02600
C171        C  0.25695475  0.89505503  0.39946293     0.08700
C172        C  0.22928922  0.88146299  0.42826347    -0.04400
H173        H  0.29531070  0.88080880  0.39221227     0.09300
H174        H  0.21039291  0.88844689  0.43082555     0.10500
Cu175      Cu  0.26699943  0.81988111  0.46421418     0.44200
Cu176      Cu  0.19471531  0.82622315  0.50229170     0.42000
Cu177      Cu  0.20858505  0.75865991  0.53802950     0.43900
N178        N  0.27063399  0.77922678  0.48418921    -0.33100
N179        N  0.24807049  0.75572818  0.51118244    -0.27300
C180        C  0.25567171  0.73173126  0.51706603    -0.03400
C181        C  0.28458980  0.74066675  0.49240551     0.08800
C182        C  0.29341748  0.77097545  0.47213552     0.02600
H183        H  0.24123198  0.70963177  0.53788971     0.10200
H184        H  0.31458007  0.78571177  0.44979012     0.09300
N185        N  0.17212200  0.76670808  0.56431197    -0.34500
N186        N  0.16656706  0.79085040  0.55227857    -0.26700
C187        C  0.14081643  0.78795909  0.57727385    -0.02000
C188        C  0.12994714  0.76067843  0.60610118     0.06600
C189        C  0.15035485  0.74800844  0.59685498     0.04700
H190        H  0.13074479  0.80430826  0.57440779     0.09800
H191        H  0.14941228  0.72654053  0.61262955     0.08700
C192        C  0.30779785  0.67209773  0.49835043     0.04700
C193        C  0.34332949  0.68845475  0.49742305    -0.11400
C194        C  0.35937647  0.66989703  0.49320742     0.02200
C195        C  0.33962427  0.63490497  0.48943197    -0.10000
C196        C  0.30415141  0.61808223  0.49174500     0.04700
C197        C  0.28850198  0.63691047  0.49601076    -0.09400
H198        H  0.35842918  0.71549512  0.49988264     0.10300
H199        H  0.35212419  0.62089435  0.48466749     0.07800
H200        H  0.26112141  0.62409902  0.49735953     0.07700
N201        N  0.63115793  0.84695852  0.55302433    -0.25700
N202        N  0.60198784  0.84264851  0.56698343    -0.33600
C203        C  0.60771192  0.86576785  0.59785070     0.02600
C204        C  0.64203892  0.88560755  0.60441020     0.08700
C205        C  0.65639604  0.87312382  0.57544353    -0.04400
H206        H  0.58809592  0.86751327  0.61506883     0.09300
H207        H  0.68302186  0.88223541  0.57102871     0.10500
Cu208      Cu  0.55466129  0.80514902  0.54722649     0.44200
Cu209      Cu  0.63415841  0.81622642  0.50434098     0.42000
Cu210      Cu  0.54997787  0.74533858  0.47274774     0.43900
N211        N  0.50901987  0.76559270  0.52598092    -0.33100
N212        N  0.50704670  0.74281682  0.49805151    -0.27300
C213        C  0.47429916  0.72070942  0.48908902    -0.03400
C214        C  0.45481700  0.73024834  0.51275107     0.08800
C215        C  0.47770886  0.75875227  0.53577388     0.02600
H216        H  0.46558397  0.69977531  0.46644652     0.10200
H217        H  0.47205750  0.77369963  0.55756953     0.09300
N218        N  0.59544640  0.75413848  0.44686801    -0.34500
N219        N  0.62594279  0.77967079  0.45680843    -0.26700
C220        C  0.64895123  0.77746298  0.43147402    -0.02000
C221        C  0.63186559  0.74914758  0.40468213     0.06600
C222        C  0.59820748  0.73515973  0.41555308     0.04700
H223        H  0.67592667  0.79518704  0.43238674     0.09800
H224        H  0.57700444  0.71292373  0.40110066     0.08700
N225        N  0.35831073  0.15877897  0.45483695    -0.25700
N226        N  0.38653031  0.16326187  0.43683273    -0.33600
C227        C  0.37846178  0.14183120  0.40256434     0.02600
C228        C  0.34349937  0.12296575  0.39879568     0.08700
C229        C  0.33161729  0.13451885  0.43233140    -0.04400
H230        H  0.39687050  0.14046110  0.38182307     0.09300
H231        H  0.30545313  0.12573094  0.44011600     0.10500
Cu232      Cu  0.43524303  0.19864948  0.45795974     0.44200
Cu233      Cu  0.35671442  0.18536152  0.50919343     0.42000
Cu234      Cu  0.43823738  0.25201317  0.54607080     0.43900
N235        N  0.48043559  0.23832786  0.48288556    -0.33100
N236        N  0.48106097  0.25818465  0.51481234    -0.27300
C237        C  0.51324612  0.28247850  0.52253200    -0.03400
C238        C  0.53409024  0.27775687  0.49438855     0.08800
C239        C  0.51245678  0.24943112  0.46960228     0.02600
H240        H  0.52091441  0.30236934  0.54670873     0.10200
H241        H  0.51929061  0.23824209  0.44316649     0.09300
N242        N  0.39302772  0.24156781  0.57476013    -0.34500
N243        N  0.36303812  0.21673915  0.56197287    -0.26700
C244        C  0.33902513  0.21645044  0.58779500    -0.02000
C245        C  0.35484496  0.24251304  0.61813913     0.06600
C246        C  0.38896490  0.25792062  0.60877031     0.04700
H247        H  0.31216206  0.19891284  0.58416936     0.09800
H248        H  0.40940868  0.27942464  0.62556545     0.08700
C249        C  0.68467899  0.32035204  0.47002534     0.04700
C250        C  0.64916771  0.29993028  0.46985573    -0.11400
C251        C  0.62890207  0.31425426  0.46919985     0.02200
C252        C  0.64453915  0.34948821  0.46778599    -0.10000
C253        C  0.67995222  0.37028505  0.46796235     0.04700
C254        C  0.69979988  0.35538786  0.46820667    -0.09400
H255        H  0.63718121  0.27283586  0.47025247     0.10300
H256        H  0.62921407  0.36086345  0.46649110     0.07800
H257        H  0.72712371  0.37091093  0.46704049     0.07700
N258        N  0.84869755  0.63693887  0.54990477    -0.25700
N259        N  0.84984776  0.60963098  0.55803725    -0.33600
C260        C  0.87477753  0.61717891  0.58764153     0.02600
C261        C  0.88984697  0.65089696  0.59856219     0.08700
C262        C  0.87257073  0.66250203  0.57411250    -0.04400
H263        H  0.88087633  0.59924518  0.60077453     0.09300
H264        H  0.87699508  0.68771338  0.57391371     0.10500
Cu265      Cu  0.81590138  0.56329651  0.52983943     0.44200
Cu266      Cu  0.81531281  0.63835862  0.50568515     0.42000
Cu267      Cu  0.75111072  0.55979084  0.45612707     0.43900
N268        N  0.77639612  0.51919933  0.50266973    -0.33100
N269        N  0.75234171  0.51764761  0.47680073    -0.27300
C270        C  0.73030471  0.48529147  0.46642630    -0.03400
C271        C  0.74109892  0.46557939  0.48675317     0.08800
C272        C  0.77036313  0.48796022  0.50925386     0.02600
H273        H  0.70826834  0.47692608  0.44547007     0.10200
H274        H  0.78603578  0.48191829  0.52936449     0.09300
N275        N  0.75925847  0.60665246  0.43787844    -0.34500
N276        N  0.78302654  0.63511410  0.45581505    -0.26700
C277        C  0.78371306  0.66104231  0.43478219    -0.02000
C278        C  0.75904825  0.64842451  0.40223529     0.06600
C279        C  0.74391664  0.61379602  0.40503373     0.04700
H280        H  0.80131232  0.68721282  0.44219893     0.09800
H281        H  0.72412563  0.59519582  0.38385429     0.08700
N282        N  0.21391938  0.85297601  0.05400254    -0.25700
N283        N  0.24116997  0.85173601  0.06399550    -0.33600
C284        C  0.25907935  0.87455189  0.09534977     0.02600
C285        C  0.24257247  0.89101792  0.10628861     0.08700
C286        C  0.21387949  0.87686230  0.07949176    -0.04400
H287        H  0.28238009  0.87851410  0.10971349     0.09300
H288        H  0.19462057  0.88343915  0.07839011     0.10500
Cu289      Cu  0.25404647  0.81862765  0.03943489     0.44200
Cu290      Cu  0.17885655  0.82189021  0.00577497     0.42000
Cu291      Cu  0.19391032  0.75423715  0.97497422     0.43900
N292        N  0.25971009  0.77945950  0.02028124    -0.33100
N293        N  0.23610396  0.75434448  0.99679682    -0.27300
C294        C  0.24548683  0.73194245  0.98921203    -0.03400
C295        C  0.27670802  0.74367786  0.00918203     0.08800
C296        C  0.28500615  0.77390758  0.02850703     0.02600
H297        H  0.23088063  0.70927861  0.96991621     0.10200
H298        H  0.30766149  0.79056704  0.04717285     0.09300
N299        N  0.15792190  0.76188644  0.94658167    -0.34500
N300        N  0.15228093  0.78630785  0.95596305    -0.26700
C301        C  0.12830977  0.78402397  0.92769287    -0.02000
C302        C  0.11879922  0.75686838  0.89963506     0.06600
C303        C  0.13797137  0.74357399  0.91274999     0.04700
H304        H  0.11880523  0.80091469  0.92746542     0.09800
H305        H  0.13798619  0.72238857  0.89807423     0.08700
C306        C  0.30598643  0.68056485  0.99605867     0.04700
C307        C  0.28951673  0.64581461  0.00293182    -0.11400
C308        C  0.30759303  0.62924337  0.00330539     0.02200
C309        C  0.34294894  0.64813127  0.99693967    -0.10000
C310        C  0.35987515  0.68316995  0.98983083     0.04700
C311        C  0.34108890  0.69900985  0.98879959    -0.09400
H312        H  0.26234432  0.63154199  0.00811204     0.10300
H313        H  0.35722380  0.63570287  0.99751853     0.07800
H314        H  0.35395812  0.72577942  0.98231098     0.07700
N315        N  0.62962462  0.84433196  0.94856375    -0.25700
N316        N  0.59991221  0.83824818  0.93368184    -0.33600
C317        C  0.60504262  0.85968224  0.89994506     0.02600
C318        C  0.63937873  0.88013006  0.89263394     0.08700
C319        C  0.65433308  0.86976340  0.92409029    -0.04400
H320        H  0.58504814  0.86017788  0.88170177     0.09300
H321        H  0.68111338  0.88008757  0.92919923     0.10500
Cu322      Cu  0.55226649  0.80079481  0.95646429     0.44200
Cu323      Cu  0.63579942  0.81823692  0.00183448     0.42000
Cu324      Cu  0.55504525  0.74772997  0.03634863     0.43900
N325        N  0.50823101  0.75916665  0.98143479    -0.33100
N326        N  0.51006497  0.73896022  0.01095878    -0.27300
C327        C  0.47883065  0.71395298  0.02178677    -0.03400
C328        C  0.45588561  0.71851396  0.99807859     0.08800
C329        C  0.47534854  0.74751845  0.97261602     0.02600
H330        H  0.47323951  0.69416872  0.04576111     0.10200
H331        H  0.46643693  0.75927836  0.94954750     0.09300
N332        N  0.60003717  0.75986975  0.06549242    -0.34500
N333        N  0.63016420  0.78553735  0.05441022    -0.26700
C334        C  0.65342307  0.78522736  0.08172342    -0.02000
C335        C  0.63655294  0.75796889  0.11091258     0.06600
C336        C  0.60300634  0.74271662  0.09947082     0.04700
H337        H  0.68035441  0.80311341  0.08008872     0.09800
H338        H  0.58205987  0.72046513  0.11466293     0.08700
O339        O  0.73289059  0.96545515  0.70140813    -0.71400
O340        O  0.76722142  0.03493805  0.79927344    -0.72300
O341        O  0.73175464  0.96322431  0.79764809    -0.61000
O342        O  0.76791868  0.03718747  0.70330471    -0.69400
O343        O  0.71891501  0.03515429  0.70433812    -0.68900
O344        O  0.68288547  0.96145266  0.79675942    -0.60200
O345        O  0.71804179  0.03258973  0.79900787    -0.72700
O346        O  0.68416921  0.96401343  0.70174271    -0.71500
Cu347      Cu  0.75170807  0.00024887  0.75039266     1.04600
Cu348      Cu  0.69936087  0.99820279  0.75046089     1.04300
C349        C  0.70301640  0.95380398  0.68616635     0.94800
C350        C  0.74799439  0.04483085  0.81431969     0.94000
C351        C  0.70144869  0.95071932  0.81203419     0.86100
C352        C  0.74904412  0.04797007  0.68930058     0.92400
O353        O  0.74315001  0.70978412  0.20650096    -0.71400
O354        O  0.71736688  0.75081819  0.30628029    -0.72300
O355        O  0.74037135  0.70453732  0.30202045    -0.61000
O356        O  0.71996833  0.75587201  0.21021675    -0.69400
O357        O  0.66716335  0.71267383  0.20834476    -0.68900
O358        O  0.68737349  0.66170219  0.29773713    -0.60200
O359        O  0.66464976  0.70755148  0.30291736    -0.72700
O360        O  0.69000816  0.66712774  0.20373776    -0.71500
Cu361      Cu  0.73216655  0.73183358  0.25643762     1.04600
Cu362      Cu  0.67553127  0.68591512  0.25308015     1.04300
C363        C  0.72050065  0.68180964  0.18967891     0.94800
C364        C  0.68676864  0.73549906  0.32028743     0.94000
C365        C  0.71709573  0.67491660  0.31384643     0.86100
C366        C  0.68991812  0.74187916  0.19465009     0.92400
O367        O  0.33204620  0.04131580  0.29150108    -0.71400
O368        O  0.28460413  0.96864656  0.20233619    -0.72300
O369        O  0.32499097  0.03919834  0.19771926    -0.61000
O370        O  0.29111761  0.97061313  0.29659321    -0.69400
O371        O  0.24484843  0.97340169  0.30323779    -0.68900
O372        O  0.27911904  0.04275742  0.20388377    -0.60200
O373        O  0.23811785  0.97115274  0.20741649    -0.72700
O374        O  0.28634663  0.04506074  0.29924685    -0.71500
Cu375      Cu  0.30965064  0.00476946  0.24683657     1.04600
Cu376      Cu  0.26039267  0.00819708  0.25371470     1.04300
C377        C  0.31703890  0.05485644  0.30935962     0.94800
C378        C  0.25427959  0.95841825  0.19026665     0.94000
C379        C  0.30757692  0.05200709  0.18535123     0.86100
C380        C  0.26274264  0.96113223  0.31561320     0.92400
O381        O  0.96743351  0.70756129  0.79254201    -0.71400
O382        O  0.03918087  0.75496176  0.69705480    -0.72300
O383        O  0.96806496  0.70672495  0.69677297    -0.61000
O384        O  0.03792514  0.75546577  0.79300542    -0.69400
O385        O  0.04689313  0.71306056  0.79470857    -0.68900
O386        O  0.97871942  0.66540592  0.69850090    -0.60200
O387        O  0.04896334  0.71312719  0.70021155    -0.72700
O388        O  0.97696672  0.66547811  0.79297114    -0.71500
Cu389      Cu  0.00275959  0.73269729  0.74465593     1.04600
Cu390      Cu  0.01328694  0.68793604  0.74658075     1.04300
C391        C  0.96108465  0.67910477  0.80782574     0.94800
C392        C  0.05567519  0.74141581  0.68399661     0.94000
C393        C  0.96222607  0.67825531  0.68285115     0.86100
C394        C  0.05310823  0.74141630  0.80943569     0.92400
O395        O  0.26743302  0.22977681  0.81332806    -0.71400
O396        O  0.22398398  0.25663502  0.71666473    -0.72300
O397        O  0.26420356  0.22639251  0.71739362    -0.61000
O398        O  0.22715753  0.25999436  0.81268206    -0.69400
O399        O  0.27424076  0.30999550  0.80768962    -0.68900
O400        O  0.31094444  0.27679449  0.71410541    -0.60200
O401        O  0.27112143  0.30663119  0.71311343    -0.72700
O402        O  0.31408290  0.28013532  0.80852509    -0.71500
Cu403      Cu  0.24398048  0.24134235  0.76520033     1.04600
Cu404      Cu  0.29410009  0.29505694  0.76073093     1.04300
C405        C  0.29768196  0.25075086  0.82593053     0.94800
C406        C  0.24104905  0.28611557  0.69954795     0.94000
C407        C  0.29352154  0.24643208  0.70086180     0.86100
C408        C  0.24515238  0.29054673  0.82513018     0.92400
C409        C  0.65490866  0.90734528  0.85854544    -0.14800
C410        C  0.68780710  0.92373955  0.84670639    -0.30000
H411        H  0.63797241  0.91357951  0.84173145     0.14200
H412        H  0.70481597  0.91702894  0.86212370     0.14700
C413        C  0.68107751  0.75907639  0.16014290    -0.14800
C414        C  0.64891969  0.74472454  0.14614034    -0.30000
H415        H  0.70065737  0.78289707  0.14606444     0.14200
H416        H  0.62972452  0.72115687  0.16135453     0.14700
C417        C  0.39709710  0.70415052  0.98310771    -0.14800
C418        C  0.41877275  0.69651550  0.00166779    -0.30000
H419        H  0.40701347  0.72775911  0.96501321     0.14200
H420        H  0.40928067  0.67413962  0.02239481     0.14700
C421        C  0.25536729  0.91794095  0.13975490    -0.14800
C422        C  0.23826222  0.93173464  0.15605108    -0.30000
H423        H  0.28057048  0.92628846  0.15237400     0.14200
H424        H  0.21280135  0.92337575  0.14460473     0.14700
C425        C  0.09412622  0.74321280  0.86285164    -0.14800
C426        C  0.07777017  0.75771885  0.84613476    -0.30000
H427        H  0.08962396  0.71985100  0.84852031     0.14200
H428        H  0.08229648  0.78132033  0.85952407     0.14700
C429        C  0.29763724  0.72827897  0.00939523    -0.14800
C430        C  0.28558025  0.69667996  0.99552134    -0.30000
H431        H  0.32313730  0.74301432  0.02255640     0.14200
H432        H  0.25926911  0.68134112  0.98558880     0.14700
C433        C  0.93584405  0.65919635  0.64914206    -0.14800
C434        C  0.91742753  0.67082518  0.63055183    -0.30000
H435        H  0.93118058  0.63460898  0.64000506     0.14200
H436        H  0.92261658  0.69573626  0.63896925     0.14700
C437        C  0.75240471  0.66856591  0.37024026    -0.14800
C438        C  0.72401699  0.65506830  0.34588364    -0.30000
H439        H  0.77093829  0.69527326  0.36758175     0.14200
H440        H  0.70476935  0.62871542  0.35013479     0.14700
C441        C  0.72585223  0.42870138  0.48572716    -0.14800
C442        C  0.69543541  0.40744654  0.46746539    -0.30000
H443        H  0.73991951  0.41886405  0.50214610     0.14200
H444        H  0.68055141  0.41737123  0.45381655     0.14700
C445        C  0.33976537  0.25324564  0.65272735    -0.14800
C446        C  0.30735113  0.23443930  0.66607730    -0.30000
H447        H  0.35637190  0.27735570  0.66840516     0.14200
H448        H  0.29089591  0.20974075  0.65189190     0.14700
C449        C  0.32277696  0.09595871  0.36656709    -0.14800
C450        C  0.33639555  0.08218635  0.34139338    -0.30000
H451        H  0.29586876  0.08667217  0.36450679     0.14200
H452        H  0.36303446  0.09069859  0.34491161     0.14700
C453        C  0.57126194  0.30006973  0.49147706    -0.14800
C454        C  0.59143882  0.29183554  0.46987050    -0.30000
H455        H  0.58243227  0.32360422  0.50957742     0.14200
H456        H  0.58048066  0.26716998  0.45484411     0.14700
C457        C  0.65774222  0.91320917  0.63707044    -0.14800
C458        C  0.69004565  0.92805121  0.65062458    -0.30000
H459        H  0.64110198  0.92043156  0.65226144     0.14200
H460        H  0.70673021  0.92042052  0.63673992     0.14700
C461        C  0.67680755  0.75037315  0.35653224    -0.14800
C462        C  0.64446687  0.73545716  0.37038209    -0.30000
H463        H  0.69596257  0.77398207  0.37115410     0.14200
H464        H  0.62558153  0.71202734  0.35500233     0.14700
C465        C  0.41773703  0.71485704  0.51323835    -0.14800
C466        C  0.39672578  0.68617261  0.49171203    -0.30000
H467        H  0.40763004  0.72717815  0.53298226     0.14200
H468        H  0.40704949  0.67302386  0.47435943     0.14700
C469        C  0.26809058  0.92145288  0.36464614    -0.14800
C470        C  0.25040461  0.93568980  0.35207601    -0.30000
H471        H  0.29180136  0.92881695  0.34782941     0.14200
H472        H  0.22644029  0.92826991  0.36810756     0.14700
C473        C  0.10240398  0.74595717  0.63951951    -0.14800
C474        C  0.08286138  0.75849573  0.65005083    -0.30000
H475        H  0.09823172  0.72337182  0.65644488     0.14200
H476        H  0.08700597  0.78137174  0.63414564     0.14700
C477        C  0.30281616  0.72250523  0.48792368    -0.14800
C478        C  0.29003426  0.69088525  0.50312021    -0.30000
H479        H  0.32686025  0.73529188  0.47027104     0.14200
H480        H  0.26487479  0.67756569  0.51783397     0.14700
C481        C  0.92242136  0.67627909  0.86710677    -0.14800
C482        C  0.93521462  0.66125149  0.84282034    -0.30000
H483        H  0.93155550  0.70274552  0.86173088     0.14200
H484        H  0.92724125  0.63521951  0.84947804     0.14700
C485        C  0.75941279  0.67959691  0.13439268    -0.14800
C486        C  0.72897005  0.66526988  0.15443693    -0.30000
H487        H  0.77884727  0.70521842  0.14247735     0.14200
H488        H  0.70921668  0.64013381  0.14496907     0.14700
C489        C  0.70941086  0.43964456  0.00122434    -0.14800
C490        C  0.72046276  0.41969234  0.98685221    -0.30000
H491        H  0.68409079  0.42869827  0.01499472     0.14200
H492        H  0.74665028  0.43089830  0.97636444     0.14700
C493        C  0.90753828  0.25461385  0.13549350    -0.14800
C494        C  0.92134113  0.23668390  0.14880676    -0.30000
H495        H  0.91527660  0.27840923  0.15153339     0.14200
H496        H  0.91298523  0.21239826  0.13393106     0.14700
C497        C  0.74292006  0.08515048  0.86107182    -0.14800
C498        C  0.76065105  0.07089210  0.84934057    -0.30000
H499        H  0.71902593  0.07741847  0.84456495     0.14200
H500        H  0.78506701  0.07908810  0.86450035     0.14700
C501        C  0.70401226  0.27982784  0.98349107    -0.14800
C502        C  0.71488283  0.31074298  0.99934756    -0.30000
H503        H  0.68078938  0.26676521  0.96424779     0.14200
H504        H  0.73926858  0.32426078  0.01598207     0.14700
C505        C  0.91720188  0.23305501  0.34550844    -0.14800
C506        C  0.90299538  0.25088290  0.35725323    -0.30000
H507        H  0.90882924  0.20886998  0.36121952     0.14200
H508        H  0.91062015  0.27439914  0.34000385     0.14700
C509        C  0.74525396  0.09103843  0.64535903    -0.14800
C510        C  0.76225895  0.07557248  0.65563237    -0.30000
H511        H  0.72153711  0.08335936  0.66239131     0.14200
H512        H  0.78657178  0.08379465  0.64005014     0.14700
C513        C  0.69853848  0.27783652  0.49508925    -0.14800
C514        C  0.70672190  0.30584451  0.47158089    -0.30000
H515        H  0.67509750  0.26511599  0.51413491     0.14200
H516        H  0.73133545  0.31989702  0.45544568     0.14700
C517        C  0.08576102  0.33897297  0.14347559    -0.14800
C518        C  0.06908323  0.30616766  0.15476633    -0.30000
H519        H  0.07924087  0.35564441  0.15986362     0.14200
H520        H  0.07596614  0.28939735  0.13960953     0.14700
C521        C  0.25065696  0.33603516  0.87206663    -0.14800
C522        C  0.23240637  0.30363103  0.86000020    -0.30000
H523        H  0.27475584  0.35268617  0.85573444     0.14200
H524        H  0.20810405  0.28673040  0.87559767     0.14700
C525        C  0.29886317  0.57179385  0.99757581    -0.14800
C526        C  0.28846884  0.59235479  0.01156340    -0.30000
H527        H  0.32237292  0.58180348  0.97902363     0.14200
H528        H  0.26389693  0.58154056  0.02768005     0.14700
C529        C  0.34697859  0.26001314  0.87019882    -0.14800
C530        C  0.31378927  0.24075998  0.86067149    -0.30000
H531        H  0.36249147  0.28340278  0.85190267     0.14200
H532        H  0.29834856  0.21673373  0.87753036     0.14700
C533        C  0.35153828  0.09048560  0.13216116    -0.14800
C534        C  0.32049812  0.07801267  0.14974612    -0.30000
H535        H  0.36739039  0.08109726  0.14394744     0.14200
H536        H  0.30464567  0.08759139  0.13880669     0.14700
C537        C  0.60722538  0.31334361  0.97532288    -0.14800
C538        C  0.58514229  0.28170702  0.98891354    -0.30000
H539        H  0.59752431  0.32824026  0.96113418     0.14200
H540        H  0.59412043  0.26698687  0.00544666     0.14700
C541        C  0.08212072  0.33209314  0.36258524    -0.14800
C542        C  0.06448071  0.29981442  0.34987027    -0.30000
H543        H  0.07750820  0.35017879  0.34592400     0.14200
H544        H  0.06962243  0.28165593  0.36506201     0.14700
C545        C  0.24351011  0.32811701  0.64687335    -0.14800
C546        C  0.22611895  0.29670162  0.66366657    -0.30000
H547        H  0.26840215  0.34567259  0.66034091     0.14200
H548        H  0.20098708  0.27886562  0.65124288     0.14700
C549        C  0.29350107  0.56046462  0.50274541    -0.14800
C550        C  0.28284474  0.58094493  0.48866370    -0.30000
H551        H  0.31813519  0.57082412  0.51836948     0.14200
H552        H  0.25716759  0.57019774  0.47632368     0.14700
loop_ 
_geom_bond_atom_site_label_1 
_geom_bond_atom_site_label_2 
_geom_bond_distance 
_geom_bond_site_symmetry_2 
_ccdc_geom_bond_type 
N1            N2   1.325       .  A
N1            C5   1.353       .  A
N1           Cu9   2.106       .  S
N2            C3   1.341       .  A
N2           Cu8   2.067       .  S
C3            C4   1.376       .  A
C3            H6   1.082       .  S
C4            C5   1.391       .  A
C4          C541   1.479       .  S
C5            H7   1.082       .  S
Cu8          N11   2.065       .  S
Cu9          N19   2.105       .  S
Cu10         N12   2.061       .  S
Cu10         N18   2.062       .  S
N11          N12   1.318       .  A
N11          C15   1.345       .  A
N12          C13   1.343       .  A
C13          C14   1.382       .  A
C13          H16   1.082       .  S
C14          C15   1.387       .  A
C14         C549   1.475       .  S
C15          H17   1.081       .  S
N18          N19   1.324       .  A
N18          C22   1.339       .  A
N19          C20   1.354       .  A
C20          C21   1.392       .  A
C20          H23   1.082       .  S
C21          C22   1.376       .  A
C21         C545   1.478       .  S
C22          H24   1.082       .  S
N25          N26   1.321       .  A
N25          C29   1.348       .  A
N25         Cu33   2.080       .  S
N26          C27   1.342       .  A
N26         Cu32   2.062       .  S
C27          C28   1.379       .  A
C27          H30   1.082       .  S
C28          C29   1.388       .  A
C28         C533   1.475       .  S
C29          H31   1.082       .  S
Cu32         N35   2.062   1_554  S
Cu33         N43   2.081   1_554  S
Cu34         N36   2.087       .  S
Cu34         N42   2.088       .  S
N35          N36   1.321       .  A
N35          C39   1.342   1_556  A
N36          C37   1.349       .  A
C37          C38   1.391       .  A
C37          H40   1.081       .  S
C38          C39   1.379   1_556  A
C38         C538   1.479       .  S
C39          H41   1.082       .  S
N42          N43   1.325       .  A
N42          C46   1.345       .  A
N43          C44   1.347       .  A
C44          C45   1.385       .  A
C44          H47   1.081       .  S
C45          C46   1.383       .  A
C45         C529   1.480       .  S
C46          H48   1.082       .  S
N49          N50   1.324       .  A
N49          C53   1.348       .  A
N49         Cu57   2.080       .  S
N50          C51   1.344       .  A
N50         Cu56   2.085       .  S
C51          C52   1.381       .  A
C51          H54   1.082       .  S
C52          C53   1.385       .  A
C52         C517   1.477       .  S
C53          H55   1.082       .  S
Cu56         N59   2.083       .  S
Cu57         N67   2.079   1_554  S
Cu58         N60   2.059       .  S
Cu58         N66   2.059       .  S
N59          N60   1.320   1_554  A
N59          C63   1.347       .  A
N60          C61   1.343       .  A
C61          C62   1.380   1_556  A
C61          H64   1.082       .  S
C62          C63   1.390       .  A
C62         C525   1.479   1_554  S
C63          H65   1.081       .  S
N66          N67   1.322       .  A
N66          C70   1.340       .  A
N67          C68   1.349       .  A
C68          C69   1.387       .  A
C68          H71   1.081       .  S
C69          C70   1.377       .  A
C69         C521   1.471       .  S
C70          H72   1.082       .  S
N73          N74   1.324       .  A
N73          C77   1.350       .  A
N73         Cu81   2.092       .  S
N74          C75   1.344       .  A
N74         Cu80   2.079       .  S
C75          C76   1.381       .  A
C75          H78   1.082       .  S
C76          C77   1.388       .  A
C76         C506   1.480       .  S
C77          H79   1.082       .  S
Cu80         N83   2.078       .  S
Cu81         N91   2.092       .  S
Cu82         N84   2.077       .  S
Cu82         N90   2.078       .  S
N83          N84   1.321       .  A
N83          C87   1.347       .  A
N84          C85   1.346       .  A
C85          C86   1.384       .  A
C85          H88   1.082       .  S
C86          C87   1.387       .  A
C86         C513   1.481       .  S
C87          H89   1.081       .  S
N90          N91   1.324       .  A
N90          C94   1.344       .  A
N91          C92   1.350       .  A
C92          C93   1.389       .  A
C92          H95   1.082       .  S
C93          C94   1.381       .  A
C93         C509   1.481       .  S
C94          H96   1.082       .  S
N97          N98   1.324       .  A
N97         C101   1.349       .  A
N97        Cu105   2.088   1_554  S
N98          C99   1.344       .  A
N98        Cu104   2.082       .  S
C99         C100   1.381       .  A
C99         H102   1.082       .  S
C100        C101   1.388       .  A
C100        C493   1.480       .  S
C101        H103   1.082       .  S
Cu104       N107   2.081       .  S
Cu105       N115   2.087       .  S
Cu106       N108   2.061       .  S
Cu106       N114   2.061       .  S
N107        N108   1.320   1_554  A
N107        C111   1.347       .  A
N108        C109   1.343       .  A
C109        C110   1.381       .  A
C109        H112   1.082       .  S
C110        C111   1.390   1_556  A
C110        C501   1.479       .  S
C111        H113   1.081       .  S
N114        N115   1.322       .  A
N114        C118   1.340       .  A
N115        C116   1.350       .  A
C116        C117   1.389       .  A
C116        H119   1.082       .  S
C117        C118   1.377       .  A
C117        C497   1.474       .  S
C118        H120   1.082       .  S
C121        C122   1.409       .  A
C121        C126   1.401       .  A
C121        C502   1.488       .  S
C122        C123   1.412       .  A
C122        H127   1.079       .  S
C123        C124   1.405       .  A
C123        C537   1.492       .  S
C124        C125   1.406       .  A
C124        H128   1.083       .  S
C125        C126   1.400       .  A
C125        C490   1.484       .  S
C126        H129   1.085       .  S
N130        N131   1.323       .  A
N130        C134   1.345       .  A
N130       Cu138   2.076   1_556  S
N131        C132   1.345       .  A
N131       Cu137   2.075       .  S
C132        C133   1.386       .  A
C132        H135   1.081       .  S
C133        C134   1.381       .  A
C133        C481   1.477       .  S
C134        H136   1.082       .  S
Cu137       N140   2.075       .  S
Cu138       N148   2.076       .  S
Cu139       N141   2.071       .  S
Cu139       N147   2.072       .  S
N140        N141   1.322   1_556  A
N140        C144   1.346       .  A
N141        C142   1.345       .  A
C142        C143   1.382       .  A
C142        H145   1.082       .  S
C143        C144   1.387   1_554  A
C143        C489   1.478       .  S
C144        H146   1.081       .  S
N147        N148   1.322       .  A
N147        C151   1.343       .  A
N148        C149   1.347       .  A
C149        C150   1.384       .  A
C149        H152   1.082       .  S
C150        C151   1.386       .  A
C150        C485   1.480       .  S
C151        H153   1.081       .  S
O154       Cu162   2.018       .  S
O154        C164   1.278       .  A
O155       Cu162   2.018   1_455  S
O155        C165   1.277       .  A
O156       Cu162   2.030       .  S
O156        C166   1.280       .  A
O157       Cu162   2.029   1_455  S
O157        C167   1.280       .  A
O158       Cu163   1.999   1_455  S
O158        C167   1.277       .  A
O159       Cu163   2.002       .  S
O159        C166   1.277       .  A
O160       Cu163   2.014   1_455  S
O160        C165   1.280       .  A
O161       Cu163   2.014       .  S
O161        C164   1.279       .  A
Cu162      Cu163   2.372       .  S
C164        C494   1.481       .  S
C165        C542   1.482       .  S
C166        C505   1.483       .  S
C167        C518   1.481       .  S
N168        N169   1.324       .  A
N168        C172   1.351       .  A
N168       Cu176   2.092       .  S
N169        C170   1.341       .  A
N169       Cu175   2.070       .  S
C170        C171   1.377       .  A
C170        H173   1.082       .  S
C171        C172   1.389       .  A
C171        C469   1.477       .  S
C172        H174   1.082       .  S
Cu175       N178   2.069       .  S
Cu176       N186   2.092       .  S
Cu177       N179   2.063       .  S
Cu177       N185   2.064       .  S
N178        N179   1.319       .  A
N178        C182   1.345       .  A
N179        C180   1.344       .  A
C180        C181   1.386       .  A
C180        H183   1.082       .  S
C181        C182   1.384       .  A
C181        C477   1.478       .  S
C182        H184   1.082       .  S
N185        N186   1.324       .  A
N185        C189   1.339       .  A
N186        C187   1.351       .  A
C187        C188   1.389       .  A
C187        H190   1.082       .  S
C188        C189   1.376       .  A
C188        C473   1.474       .  S
C189        H191   1.082       .  S
C192        C193   1.408       .  A
C192        C197   1.404       .  A
C192        C478   1.486       .  S
C193        C194   1.407       .  A
C193        H198   1.081       .  S
C194        C195   1.400       .  A
C194        C466   1.483       .  S
C195        C196   1.405       .  A
C195        H199   1.083       .  S
C196        C197   1.403       .  A
C196        C550   1.485       .  S
C197        H200   1.085       .  S
N201        N202   1.323       .  A
N201        C205   1.352       .  A
N201       Cu209   2.100       .  S
N202        C203   1.339       .  A
N202       Cu208   2.057       .  S
C203        C204   1.375       .  A
C203        H206   1.082       .  S
C204        C205   1.390       .  A
C204        C457   1.475       .  S
C205        H207   1.082       .  S
Cu208       N211   2.056       .  S
Cu209       N219   2.100       .  S
Cu210       N212   2.070       .  S
Cu210       N218   2.071       .  S
N211        N212   1.318       .  A
N211        C215   1.343       .  A
N212        C213   1.345       .  A
C213        C214   1.388       .  A
C213        H216   1.081       .  S
C214        C215   1.381       .  A
C214        C465   1.476       .  S
C215        H217   1.082       .  S
N218        N219   1.324       .  A
N218        C222   1.341       .  A
N219        C220   1.352       .  A
C220        C221   1.390       .  A
C220        H223   1.082       .  S
C221        C222   1.378       .  A
C221        C462   1.479       .  S
C222        H224   1.082       .  S
N225        N226   1.323       .  A
N225        C229   1.346       .  A
N225       Cu233   2.070       .  S
N226        C227   1.344       .  A
N226       Cu232   2.084       .  S
C227        C228   1.387       .  A
C227        H230   1.081       .  S
C228        C229   1.381       .  A
C228        C449   1.479       .  S
C229        H231   1.082       .  S
Cu232       N235   2.084       .  S
Cu233       N243   2.070       .  S
Cu234       N236   2.069       .  S
Cu234       N242   2.069       .  S
N235        N236   1.321       .  A
N235        C239   1.349       .  A
N236        C237   1.343       .  A
C237        C238   1.380       .  A
C237        H240   1.082       .  S
C238        C239   1.389       .  A
C238        C453   1.479       .  S
C239        H241   1.081       .  S
N242        N243   1.321       .  A
N242        C246   1.343       .  A
N243        C244   1.346       .  A
C244        C245   1.385       .  A
C244        H247   1.082       .  S
C245        C246   1.380       .  A
C245        C445   1.473       .  S
C246        H248   1.082       .  S
C249        C250   1.407       .  A
C249        C254   1.403       .  A
C249        C514   1.487       .  S
C250        C251   1.404       .  A
C250        H255   1.083       .  S
C251        C252   1.409       .  A
C251        C454   1.488       .  S
C252        C253   1.405       .  A
C252        H256   1.083       .  S
C253        C254   1.408       .  A
C253        C442   1.491       .  S
C254        H257   1.083       .  S
N258        N259   1.321       .  A
N258        C262   1.343       .  A
N258       Cu266   2.055       .  S
N259        C260   1.346       .  A
N259       Cu265   2.082       .  S
C260        C261   1.389       .  A
C260        H263   1.081       .  S
C261        C262   1.379       .  A
C261        C434   1.476       .  S
C262        H264   1.082       .  S
Cu265       N268   2.083       .  S
Cu266       N276   2.055       .  S
Cu267       N269   2.082       .  S
Cu267       N275   2.081       .  S
N268        N269   1.323       .  A
N268        C272   1.345       .  A
N269        C270   1.348       .  A
C270        C271   1.387       .  A
C270        H273   1.081       .  S
C271        C272   1.382       .  A
C271        C441   1.481       .  S
C272        H274   1.082       .  S
N275        N276   1.322       .  A
N275        C279   1.345       .  A
N276        C277   1.342       .  A
C277        C278   1.377       .  A
C277        H280   1.082       .  S
C278        C279   1.387       .  A
C278        C437   1.473       .  S
C279        H281   1.082       .  S
N282        N283   1.324       .  A
N282        C286   1.352       .  A
N282       Cu290   2.092       .  S
N283        C284   1.337       .  A
N283       Cu289   2.058       .  S
C284        C285   1.374       .  A
C284        H287   1.082       .  S
C285        C286   1.389       .  A
C285        C421   1.471       .  S
C286        H288   1.082       .  S
Cu289       N292   2.057       .  S
Cu290       N300   2.092   1_554  S
Cu291       N293   2.053       .  S
Cu291       N299   2.053       .  S
N292        N293   1.317   1_554  A
N292        C296   1.344       .  A
N293        C294   1.342       .  A
C294        C295   1.386   1_556  A
C294        H297   1.081       .  S
C295        C296   1.383       .  A
C295        C429   1.473       .  S
C296        H298   1.082       .  S
N299        N300   1.324       .  A
N299        C303   1.337       .  A
N300        C301   1.351       .  A
C301        C302   1.389       .  A
C301        H304   1.082       .  S
C302        C303   1.373       .  A
C302        C425   1.470       .  S
C303        H305   1.082       .  S
C306        C307   1.399   1_556  A
C306        C311   1.404       .  A
C306        C430   1.479       .  S
C307        C308   1.401       .  A
C307        H312   1.085       .  S
C308        C309   1.410   1_554  A
C308        C526   1.488       .  S
C309        C310   1.411       .  A
C309        H313   1.080       .  S
C310        C311   1.401       .  A
C310        C417   1.487       .  S
C311        H314   1.083       .  S
N315        N316   1.327       .  A
N315        C319   1.352       .  A
N315       Cu323   2.100   1_556  S
N316        C317   1.343       .  A
N316       Cu322   2.088       .  S
C317        C318   1.380       .  A
C317        H320   1.082       .  S
C318        C319   1.388       .  A
C318        C409   1.481       .  S
C319        H321   1.082       .  S
Cu322       N325   2.085       .  S
Cu323       N333   2.097       .  S
Cu324       N326   2.045       .  S
Cu324       N332   2.045       .  S
N325        N326   1.318   1_556  A
N325        C329   1.349       .  A
N326        C327   1.341       .  A
C327        C328   1.378   1_554  A
C327        H330   1.082       .  S
C328        C329   1.392       .  A
C328        C418   1.477   1_556  S
C329        H331   1.082       .  S
N332        N333   1.322       .  A
N332        C336   1.336       .  A
N333        C334   1.354       .  A
C334        C335   1.391       .  A
C334        H337   1.082       .  S
C335        C336   1.373       .  A
C335        C414   1.471       .  S
C336        H338   1.082       .  S
O339       Cu347   2.020   1_565  S
O339        C349   1.278       .  A
O340       Cu347   2.019       .  S
O340        C350   1.278       .  A
O341       Cu347   2.032   1_565  S
O341        C351   1.280       .  A
O342       Cu347   2.030       .  S
O342        C352   1.280       .  A
O343       Cu348   2.006   1_545  S
O343        C352   1.278       .  A
O344       Cu348   2.008       .  S
O344        C351   1.278       .  A
O345       Cu348   2.000   1_545  S
O345        C350   1.278       .  A
O346       Cu348   2.002       .  S
O346        C349   1.279       .  A
Cu347      Cu348   2.372   1_545  S
C349        C458   1.480       .  S
C350        C498   1.478       .  S
C351        C410   1.485       .  S
C352        C510   1.484       .  S
O353       Cu361   2.023       .  S
O353        C363   1.280       .  A
O354       Cu361   2.026       .  S
O354        C364   1.279       .  A
O355       Cu361   2.020       .  S
O355        C365   1.280       .  A
O356       Cu361   2.025       .  S
O356        C366   1.278       .  A
O357       Cu362   1.989       .  S
O357        C366   1.278       .  A
O358       Cu362   1.990       .  S
O358        C365   1.274       .  A
O359       Cu362   2.006       .  S
O359        C364   1.279       .  A
O360       Cu362   2.001       .  S
O360        C363   1.276       .  A
Cu361      Cu362   2.373       .  S
C363        C486   1.475       .  S
C364        C461   1.484       .  S
C365        C438   1.470       .  S
C366        C413   1.481       .  S
O367       Cu375   1.985       .  S
O367        C377   1.274       .  A
O368       Cu375   1.984   1_565  S
O368        C378   1.277       .  A
O369       Cu375   2.002       .  S
O369        C379   1.278       .  A
O370       Cu375   2.005   1_565  S
O370        C380   1.279       .  A
O371       Cu376   2.021   1_565  S
O371        C380   1.278       .  A
O372       Cu376   2.018       .  S
O372        C379   1.278       .  A
O373       Cu376   2.032   1_565  S
O373        C378   1.279       .  A
O374       Cu376   2.030       .  S
O374        C377   1.281       .  A
Cu375      Cu376   2.373       .  S
C377        C450   1.472       .  S
C378        C422   1.481       .  S
C379        C534   1.478       .  S
C380        C470   1.481       .  S
O381       Cu389   2.019   1_655  S
O381        C391   1.280       .  A
O382       Cu389   2.025       .  S
O382        C392   1.278       .  A
O383       Cu389   2.019   1_655  S
O383        C393   1.280       .  A
O384       Cu389   2.018       .  S
O384        C394   1.277       .  A
O385       Cu390   1.993       .  S
O385        C394   1.278       .  A
O386       Cu390   1.996   1_655  S
O386        C393   1.275       .  A
O387       Cu390   1.996       .  S
O387        C392   1.278       .  A
O388       Cu390   1.998   1_655  S
O388        C391   1.275       .  A
Cu389      Cu390   2.374       .  S
C391        C482   1.473       .  S
C392        C474   1.480       .  S
C393        C433   1.473       .  S
C394        C426   1.477       .  S
O395       Cu403   2.028       .  S
O395        C405   1.280       .  A
O396       Cu403   2.029       .  S
O396        C406   1.279       .  A
O397       Cu403   2.021       .  S
O397        C407   1.278       .  A
O398       Cu403   2.021       .  S
O398        C408   1.278       .  A
O399       Cu404   1.992       .  S
O399        C408   1.277       .  A
O400       Cu404   1.992       .  S
O400        C407   1.277       .  A
O401       Cu404   2.003       .  S
O401        C406   1.279       .  A
O402       Cu404   2.003       .  S
O402        C405   1.277       .  A
Cu403      Cu404   2.372       .  S
C405        C530   1.481       .  S
C406        C546   1.485       .  S
C407        C446   1.475       .  S
C408        C522   1.477       .  S
C409        C410   1.347       .  D
C409        H411   1.087       .  S
C410        H412   1.086       .  S
C413        C414   1.342       .  D
C413        H415   1.086       .  S
C414        H416   1.087       .  S
C417        C418   1.342   1_556  D
C417        H419   1.086       .  S
C418        H420   1.085       .  S
C421        C422   1.344       .  D
C421        H423   1.087       .  S
C422        H424   1.086       .  S
C425        C426   1.342       .  D
C425        H427   1.087       .  S
C426        H428   1.086       .  S
C429        C430   1.343   1_554  D
C429        H431   1.085       .  S
C430        H432   1.085       .  S
C433        C434   1.341       .  D
C433        H435   1.086       .  S
C434        H436   1.087       .  S
C437        C438   1.339       .  D
C437        H439   1.087       .  S
C438        H440   1.086       .  S
C441        C442   1.347       .  D
C441        H443   1.085       .  S
C442        H444   1.086       .  S
C445        C446   1.344       .  D
C445        H447   1.087       .  S
C446        H448   1.086       .  S
C449        C450   1.341       .  D
C449        H451   1.086       .  S
C450        H452   1.086       .  S
C453        C454   1.345       .  D
C453        H455   1.086       .  S
C454        H456   1.086       .  S
C457        C458   1.343       .  D
C457        H459   1.087       .  S
C458        H460   1.086       .  S
C461        C462   1.345       .  D
C461        H463   1.086       .  S
C462        H464   1.087       .  S
C465        C466   1.343       .  D
C465        H467   1.085       .  S
C466        H468   1.086       .  S
C469        C470   1.344       .  D
C469        H471   1.086       .  S
C470        H472   1.085       .  S
C473        C474   1.344       .  D
C473        H475   1.086       .  S
C474        H476   1.085       .  S
C477        C478   1.346       .  D
C477        H479   1.085       .  S
C478        H480   1.086       .  S
C481        C482   1.342       .  D
C481        H483   1.087       .  S
C482        H484   1.085       .  S
C485        C486   1.344       .  D
C485        H487   1.087       .  S
C486        H488   1.086       .  S
C489        C490   1.344   1_554  D
C489        H491   1.085       .  S
C490        H492   1.086       .  S
C493        C494   1.345       .  D
C493        H495   1.086       .  S
C494        H496   1.086       .  S
C497        C498   1.343       .  D
C497        H499   1.086       .  S
C498        H500   1.085       .  S
C501        C502   1.344       .  D
C501        H503   1.085       .  S
C502        H504   1.086   1_556  S
C505        C506   1.347       .  D
C505        H507   1.086       .  S
C506        H508   1.086       .  S
C509        C510   1.347       .  D
C509        H511   1.086       .  S
C510        H512   1.085       .  S
C513        C514   1.346       .  D
C513        H515   1.086       .  S
C514        H516   1.086       .  S
C517        C518   1.347       .  D
C517        H519   1.087       .  S
C518        H520   1.086       .  S
C521        C522   1.343       .  D
C521        H523   1.086       .  S
C522        H524   1.085       .  S
C525        C526   1.343   1_556  D
C525        H527   1.085       .  S
C526        H528   1.086       .  S
C529        C530   1.347       .  D
C529        H531   1.087       .  S
C530        H532   1.086       .  S
C533        C534   1.343       .  D
C533        H535   1.087       .  S
C534        H536   1.086       .  S
C537        C538   1.345       .  D
C537        H539   1.086       .  S
C538        H540   1.084   1_556  S
C541        C542   1.343       .  D
C541        H543   1.087       .  S
C542        H544   1.086       .  S
C545        C546   1.345       .  D
C545        H547   1.087       .  S
C546        H548   1.086       .  S
C549        C550   1.345       .  D
C549        H551   1.085       .  S
C550        H552   1.086       .  S
