geometry optimzed in LAMMPS
_audit_creation_date              2020-11-30 
_audit_creation_method            'lammps2cif' 
_symmetry_space_group_name_H-M    'P1' 
_symmetry_Int_Tables_number       1 
_symmetry_cell_setting            triclinic 
loop_ 
_symmetry_equiv_pos_as_xyz 
  x,y,z 
_cell_length_a                    26.155094816549486 
_cell_length_b                    26.407188366947498 
_cell_length_c                    26.15148901194778 
_cell_angle_alpha                 90.03160808927895 
_cell_angle_beta                  90.00431472612827 
_cell_angle_gamma                 89.97306970715084 
loop_ 
_atom_site_label 
_atom_site_type_symbol 
_atom_site_fract_x 
_atom_site_fract_y 
_atom_site_fract_z 
_atom_site_charge 
C1          C  0.70310535  0.77105932  0.70269979     0.04250
C2          C  0.74680614  0.74916943  0.68074824    -0.11900
C3          C  0.76841953  0.70551653  0.70229659     0.01750
C4          C  0.74630302  0.68385720  0.74588754    -0.10420
C5          C  0.70244973  0.70534987  0.76771931     0.04240
C6          C  0.68085186  0.74894888  0.74607356    -0.09840
H7          H  0.76384354  0.76597220  0.64702246     0.09840
H8          H  0.76296286  0.65008877  0.76256699     0.07370
H9          H  0.64692385  0.76562360  0.76292762     0.07220
C10         C  0.32143276  0.70566382  0.25454906     0.04250
C11         C  0.27807605  0.68361980  0.27678921    -0.11900
C12         C  0.25521338  0.70614497  0.31958553     0.01750
C13         C  0.27607115  0.75042519  0.34042435    -0.10420
C14         C  0.31992072  0.77203587  0.31883429     0.04240
C15         C  0.34242664  0.74978793  0.27572028    -0.09840
H16         H  0.26196458  0.64935560  0.26062063     0.09840
H17         H  0.25862841  0.76763229  0.37377925     0.07370
H18         H  0.37624948  0.76659846  0.25884954     0.07220
C19         C  0.70279313  0.32224930  0.76745553     0.04250
C20         C  0.68217990  0.27777586  0.74662606    -0.11900
C21         C  0.70428939  0.25576487  0.70314819     0.01750
C22         C  0.74749703  0.27806304  0.68081820    -0.10420
C23         C  0.76824952  0.32254834  0.70151086     0.04240
C24         C  0.74567263  0.34473009  0.74468797    -0.09840
H25         H  0.64878548  0.26058708  0.76395578     0.09840
H26         H  0.76469064  0.26106588  0.64723400     0.07370
H27         H  0.76163357  0.37912061  0.76073066     0.07220
C28         C  0.32064536  0.25497484  0.70254236     0.04250
C29         C  0.27763199  0.27724470  0.67972162    -0.11900
C30         C  0.25618900  0.32132804  0.70067406     0.01750
C31         C  0.27802743  0.34320336  0.74435056    -0.10420
C32         C  0.32097830  0.32100391  0.76726020     0.04240
C33         C  0.34212952  0.27684393  0.74640427    -0.09840
H34         H  0.26098226  0.26041052  0.64579503     0.09840
H35         H  0.26159077  0.37733280  0.76052531     0.07370
H36         H  0.37549027  0.25979682  0.76398795     0.07220
C37         C  0.32034502  0.70628195  0.76783460     0.04250
C38         C  0.27748090  0.68385494  0.74510180    -0.11900
C39         C  0.25556230  0.70534692  0.70126741     0.01750
C40         C  0.27700705  0.74915953  0.67981591    -0.10420
C41         C  0.31980179  0.77184703  0.70266667     0.04240
C42         C  0.34117975  0.75047591  0.74681312    -0.09840
H43         H  0.26120547  0.64978223  0.76148284     0.09840
H44         H  0.26038450  0.76559960  0.64569522     0.07370
H45         H  0.37443567  0.76777730  0.76433240     0.07220
C46         C  0.70439840  0.25488142  0.31901128     0.04250
C47         C  0.68206985  0.27723190  0.27586054    -0.11900
C48         C  0.70308926  0.32146234  0.25494088     0.01750
C49         C  0.74638914  0.34344983  0.27746994    -0.10420
C50         C  0.76908414  0.32080713  0.32031549     0.04240
C51         C  0.74810676  0.27648884  0.34089773    -0.09840
H52         H  0.64833430  0.26043047  0.25878153     0.09840
H53         H  0.76257318  0.37774774  0.26150161     0.07370
H54         H  0.76540475  0.25919209  0.37426234     0.07220
O55         O  0.46175680  0.46179845  0.13405497    -0.70660
O56         O  0.56141595  0.56408070  0.13411381    -0.70870
O57         O  0.56321517  0.46352888  0.13420781    -0.70730
O58         O  0.45999379  0.56237444  0.13397885    -0.70740
O59         O  0.45923405  0.56398251  0.21692710    -0.70700
O60         O  0.56387060  0.46217281  0.21715426    -0.70720
O61         O  0.56280567  0.56494956  0.21706171    -0.70660
O62         O  0.46025124  0.46120656  0.21700583    -0.70850
V63         V  0.51158899  0.51294686  0.13599089     1.35240
V64         V  0.51152644  0.51306950  0.21572326     1.35170
C65         C  0.44366832  0.44389319  0.17491265     0.78580
C66         C  0.57951598  0.58206165  0.17496224     0.78640
C67         C  0.58112065  0.44544413  0.17508560     0.78510
C68         C  0.44215288  0.58067775  0.17479539     0.78470
C69         C  0.34819219  0.35294133  0.11737481     0.04250
C70         C  0.38636403  0.38949119  0.12316448    -0.11900
C71         C  0.40394681  0.40409778  0.17167670     0.01750
C72         C  0.38277220  0.38102243  0.21512222    -0.10420
C73         C  0.34455553  0.34389074  0.20964372     0.04320
C74         C  0.32737590  0.32974361  0.16070164    -0.09840
H75         H  0.40197770  0.40698979  0.08908877     0.09840
H76         H  0.39557021  0.39192021  0.25295138     0.07370
H77         H  0.29757203  0.30155554  0.15649393     0.07220
C78         C  0.35711182  0.68117880  0.11713653     0.04250
C79         C  0.33348702  0.70198934  0.16029487    -0.11900
C80         C  0.34487548  0.68268594  0.20912264     0.01750
C81         C  0.37982479  0.64249810  0.21469267    -0.10420
C82         C  0.40337967  0.62139907  0.17143195     0.04240
C83         C  0.39118936  0.64080567  0.12302002    -0.09840
H84         H  0.30714881  0.73340588  0.15608915     0.09840
H85         H  0.38892224  0.62832576  0.25247253     0.07370
H86         H  0.40903070  0.62511422  0.08911185     0.07220
C87         C  0.66816308  0.34662075  0.11735504     0.04250
C88         C  0.69183942  0.32587483  0.16052566    -0.11900
C89         C  0.67971110  0.34455041  0.20947435     0.01750
C90         C  0.64397277  0.38409067  0.21509404    -0.10420
C91         C  0.62036593  0.40511395  0.17180923     0.04240
C92         C  0.63323689  0.38623859  0.12333713    -0.09840
H93         H  0.71879055  0.29498254  0.15622663     0.09840
H94         H  0.63434141  0.39784196  0.25291742     0.07370
H95         H  0.61537225  0.40182800  0.08941133     0.07220
C96         C  0.67808379  0.66942209  0.11716886     0.04250
C97         C  0.63875186  0.63411909  0.12318204    -0.11900
C98         C  0.61967988  0.62142105  0.17163050     0.01750
C99         C  0.64017662  0.64554389  0.21485008    -0.10420
C100        C  0.67929583  0.68173535  0.20916368     0.04240
C101        C  0.69815504  0.69374978  0.16025699    -0.09840
H102        H  0.62354300  0.61584799  0.08931306     0.09840
H103        H  0.62633863  0.63599860  0.25266979     0.07370
H104        H  0.72885167  0.72096104  0.15595766     0.07220
O105        O  0.56230506  0.56539396  0.80519883    -0.70660
O106        O  0.45964551  0.46166254  0.80537327    -0.70870
O107        O  0.45863296  0.56448690  0.80523465    -0.70730
O108        O  0.56328921  0.46260307  0.80532254    -0.70740
O109        O  0.56255264  0.46410927  0.88826583    -0.70700
O110        O  0.45942584  0.56313092  0.88817610    -0.70720
O111        O  0.46105584  0.46252646  0.88831980    -0.70660
O112        O  0.56091300  0.56470231  0.88814112    -0.70850
V113        V  0.51095275  0.51353544  0.80659769     1.35240
V114        V  0.51097620  0.51362519  0.88632312     1.35170
C115        C  0.57909588  0.58254380  0.84727959     0.78580
C116        C  0.44301874  0.44446178  0.84748153     0.78640
C117        C  0.44153013  0.58130457  0.84733011     0.78510
C118        C  0.58049436  0.44593101  0.84742452     0.78470
C119        C  0.34800723  0.35308052  0.90512028     0.04250
C120        C  0.32709738  0.32986728  0.86180942    -0.11900
C121        C  0.34395853  0.34421806  0.81284176     0.01750
C122        C  0.38201853  0.38152524  0.80733103    -0.10420
C123        C  0.40335913  0.40456381  0.85075595     0.04240
C124        C  0.38603655  0.38977919  0.89928998    -0.09840
H125        H  0.29742251  0.30155818  0.86605358     0.09840
H126        H  0.39460639  0.39255027  0.76948574     0.07370
H127        H  0.40174321  0.40725699  0.93335865     0.07220
C128        C  0.35645510  0.68173506  0.90518292     0.04250
C129        C  0.33265522  0.70255656  0.86213492    -0.11900
C130        C  0.34386817  0.68326023  0.81324004     0.01750
C131        C  0.37889763  0.64308678  0.80752559    -0.10420
C132        C  0.40265017  0.62200228  0.85069515     0.04240
C133        C  0.39052978  0.64138440  0.89914103    -0.09840
H134        H  0.30632529  0.73396496  0.86647549     0.09840
H135        H  0.38792333  0.62893429  0.76970302     0.07370
H136        H  0.40845720  0.62570325  0.93298942     0.07220
C137        C  0.66765202  0.34710925  0.90510013     0.04250
C138        C  0.63258176  0.38663466  0.89918231    -0.11900
C139        C  0.61975816  0.40558816  0.85073313     0.01750
C140        C  0.64349907  0.38468422  0.80743452    -0.10420
C141        C  0.67930740  0.34519717  0.81298444     0.04240
C142        C  0.69142518  0.32648977  0.86189596    -0.09840
H143        H  0.61461907  0.40212978  0.93311871     0.09840
H144        H  0.63391646  0.39849201  0.76963836     0.07370
H145        H  0.71846946  0.29567507  0.86614520     0.07220
C146        C  0.67819230  0.66944782  0.90509490     0.04250
C147        C  0.69832509  0.69375157  0.86204653    -0.11900
C148        C  0.67935145  0.68190987  0.81312773     0.01750
C149        C  0.64004979  0.64586205  0.80740859    -0.10420
C150        C  0.61948273  0.62174999  0.85059873     0.04240
C151        C  0.63871007  0.63430058  0.89904533    -0.09840
H152        H  0.72913361  0.72083778  0.86638931     0.09840
H153        H  0.62611957  0.63642000  0.76958277     0.07370
H154        H  0.62347390  0.61606083  0.93289299     0.07220
O155        O  0.46128815  0.21596230  0.45891929    -0.70660
O156        O  0.56443691  0.21629866  0.56302842    -0.70870
O157        O  0.56487417  0.21607986  0.45935746    -0.70730
O158        O  0.46078003  0.21618796  0.56252502    -0.70740
O159        O  0.46191679  0.13403554  0.56161870    -0.70700
O160        O  0.56410390  0.13392514  0.46055344    -0.70720
O161        O  0.56354393  0.13414546  0.56219576    -0.70660
O162        O  0.46245594  0.13380663  0.46000319    -0.70850
V163        V  0.51285131  0.21480362  0.51094706     1.35240
V164        V  0.51299770  0.13583893  0.51107207     1.35170
C165        C  0.44423785  0.17426791  0.44197500     0.78580
C166        C  0.58151142  0.17471431  0.58025462     0.78640
C167        C  0.58218418  0.17442665  0.44251706     0.78510
C168        C  0.44382341  0.17455760  0.57969422     0.78470
C169        C  0.34452466  0.11799740  0.35422793     0.04250
C170        C  0.38402574  0.12340676  0.38982676    -0.11900
C171        C  0.40358274  0.17118688  0.40272119     0.01750
C172        C  0.38317850  0.21423539  0.37878456    -0.10420
C173        C  0.34369422  0.20911732  0.34257568     0.04240
C174        C  0.32445373  0.16093392  0.33019581    -0.09840
H175        H  0.39913385  0.08965899  0.40796997     0.09840
H176        H  0.39737470  0.25155666  0.38852856     0.07370
H177        H  0.29361630  0.15704582  0.30281385     0.07220
C178        C  0.67935099  0.11815595  0.35188566     0.04250
C179        C  0.64110177  0.12356068  0.38879168    -0.11900
C180        C  0.62259338  0.17142638  0.40297386     0.01750
C181        C  0.64319480  0.21457064  0.37938263    -0.10420
C182        C  0.68167032  0.20947446  0.34207862     0.04240
C183        C  0.69963147  0.16118259  0.32820483    -0.09840
H184        H  0.62585518  0.08971262  0.40659158     0.09840
H185        H  0.62974813  0.25193465  0.39004323     0.07370
H186        H  0.72947022  0.15723782  0.29974782     0.07220
C187        C  0.35653281  0.11831161  0.67982792     0.04250
C188        C  0.39195315  0.12381488  0.64017195    -0.11900
C189        C  0.40451531  0.17155791  0.62035823     0.01750
C190        C  0.38025308  0.21457401  0.64053110    -0.10420
C191        C  0.34407874  0.20949209  0.68008127     0.04240
C192        C  0.33213191  0.16126928  0.69965198    -0.09840
H193        H  0.41031948  0.09011739  0.62516618     0.09840
H194        H  0.38971563  0.25185783  0.62608826     0.07370
H195        H  0.30484979  0.15738588  0.73056148     0.07220
C196        C  0.67694444  0.11857729  0.67282030     0.04250
C197        C  0.69830257  0.16177984  0.69537884    -0.11900
C198        C  0.68148519  0.21015508  0.68027035     0.01750
C199        C  0.64315817  0.21511370  0.64276464    -0.10420
C200        C  0.62155819  0.17184369  0.62023524     0.04240
C201        C  0.63882906  0.12394328  0.63577196    -0.09840
H202        H  0.72798133  0.15788530  0.72400292     0.09840
H203        H  0.63050335  0.25247241  0.63120917     0.07370
H204        H  0.62283609  0.09000353  0.61877678     0.07220
O205        O  0.56225890  0.89272330  0.56198554    -0.70660
O206        O  0.46130361  0.89264526  0.45967000    -0.70870
O207        O  0.46063823  0.89256883  0.56128686    -0.70730
O208        O  0.56295715  0.89278797  0.46035213    -0.70740
O209        O  0.56389385  0.81062972  0.45914959    -0.70700
O210        O  0.45977301  0.81041699  0.56227194    -0.70720
O211        O  0.46029820  0.81048995  0.45863691    -0.70660
O212        O  0.56340459  0.81056816  0.56277336    -0.70850
V213        V  0.51177373  0.89082210  0.51079835     1.35240
V214        V  0.51184444  0.81185616  0.51069402     1.35170
C215        C  0.58034964  0.85220203  0.58001229     0.78580
C216        C  0.44318268  0.85213335  0.44164431     0.78640
C217        C  0.44271154  0.85203935  0.57943472     0.78510
C218        C  0.58116895  0.85228585  0.44236983     0.78470
C219        C  0.34366577  0.90846425  0.35378992     0.04250
C220        C  0.32350759  0.86557326  0.32972297    -0.11900
C221        C  0.34262273  0.81733606  0.34213109     0.01750
C222        C  0.38206753  0.81213801  0.37840498    -0.10420
C223        C  0.40255874  0.85516077  0.40234168     0.04240
C224        C  0.38313286  0.90296355  0.38938912    -0.09840
H225        H  0.29273702  0.86954058  0.30227995     0.09840
H226        H  0.39620318  0.77479107  0.38815197     0.07370
H227        H  0.39831582  0.93669802  0.40750768     0.07220
C228        C  0.67885023  0.90832611  0.35223596     0.04250
C229        C  0.64050840  0.90305071  0.38906411    -0.11900
C230        C  0.62171114  0.85524164  0.40298225     0.01750
C231        C  0.64213365  0.81204194  0.37925932    -0.10420
C232        C  0.68071193  0.81701428  0.34208130     0.04240
C233        C  0.69896528  0.86523466  0.32845781    -0.09840
H234        H  0.62536974  0.93693819  0.40695949     0.09840
H235        H  0.62847509  0.77473112  0.38972830     0.07370
H236        H  0.72886828  0.86907736  0.30006252     0.07220
C237        C  0.35604627  0.90839233  0.68009954     0.04250
C238        C  0.33155365  0.86551377  0.69988854    -0.11900
C239        C  0.34316012  0.81727006  0.68005928     0.01750
C240        C  0.37916627  0.81210282  0.64034036    -0.10420
C241        C  0.40353568  0.85505535  0.62023346     0.04240
C242        C  0.39126083  0.90280178  0.64027971    -0.09840
H243        H  0.30444298  0.86946981  0.73094814     0.09840
H244        H  0.38844954  0.77480258  0.62574532     0.07370
H245        H  0.40968966  0.93644397  0.62531731     0.07220
C246        C  0.67604501  0.90826747  0.67240342     0.04250
C247        C  0.63784797  0.90299942  0.63540725    -0.11900
C248        C  0.62041653  0.85511448  0.61994284     0.01750
C249        C  0.64190661  0.81179863  0.64246349    -0.10420
C250        C  0.68030628  0.81666922  0.67986274     0.04240
C251        C  0.69730887  0.86500138  0.69490697    -0.09840
H252        H  0.62193047  0.93696294  0.61839836     0.09840
H253        H  0.62913335  0.77446569  0.63095476     0.07370
H254        H  0.72706480  0.86881406  0.72346465     0.07220
C255        C  0.70334730  0.77156739  0.31893013     0.04250
C256        C  0.74753900  0.75036765  0.34031903    -0.11900
C257        C  0.76884516  0.70637216  0.31931336     0.01750
C258        C  0.74624195  0.68387522  0.27640904    -0.10420
C259        C  0.70230242  0.70523110  0.25456663     0.04240
C260        C  0.68068088  0.74894277  0.27604299    -0.09840
H261        H  0.76493800  0.76770712  0.37361785     0.09840
H262        H  0.76278950  0.64988148  0.26005610     0.07370
H263        H  0.64653224  0.76534357  0.25938504     0.07220
O264        O  0.13516057  0.46262915  0.45953149    -0.70660
O265        O  0.13527717  0.56431743  0.55990280    -0.70870
O266        O  0.13503707  0.56323886  0.45845721    -0.70730
O267        O  0.13540946  0.46374443  0.56094761    -0.70740
O268        O  0.21834229  0.46243039  0.56161817    -0.70700
O269        O  0.21797344  0.56466493  0.45744781    -0.70720
O270        O  0.21821062  0.56526530  0.56109100    -0.70660
O271        O  0.21809542  0.46181274  0.45800173    -0.70850
V272        V  0.13713032  0.51350315  0.50967439     1.35240
V273        V  0.21684851  0.51356183  0.50950806     1.35170
C274        C  0.17597462  0.44433549  0.44169438     0.78580
C275        C  0.17611828  0.58222040  0.57806340     0.78640
C276        C  0.17581157  0.58153445  0.44060001     0.78510
C277        C  0.17629905  0.44559803  0.57878152     0.78470
C278        C  0.11824637  0.34256807  0.35817686     0.04250
C279        C  0.12425726  0.38270473  0.39250973    -0.11900
C280        C  0.17258084  0.40295114  0.40361133     0.01750
C281        C  0.21565699  0.38252554  0.37913520    -0.10420
C282        C  0.20999427  0.34235441  0.34414525     0.04240
C283        C  0.16121781  0.32247673  0.33356692    -0.09840
H284        H  0.09047280  0.39789984  0.41102031     0.09840
H285        H  0.25339950  0.39726987  0.38749870     0.07370
H286        H  0.15691321  0.29125250  0.30702667     0.07220
C287        C  0.11798401  0.68266842  0.35648459     0.04250
C288        C  0.16101376  0.70305767  0.33231037    -0.11900
C289        C  0.20980246  0.68328514  0.34307635     0.01750
C290        C  0.21546377  0.64307883  0.37795567    -0.10420
C291        C  0.17234537  0.62241009  0.40204950     0.04240
C292        C  0.12396682  0.64229031  0.39050827    -0.09840
H293        H  0.15675543  0.73448888  0.30604662     0.09840
H294        H  0.25324847  0.62857970  0.38662660     0.07370
H295        H  0.09015665  0.62687330  0.40872975     0.07220
C296        C  0.11848948  0.34848838  0.66763069     0.04250
C297        C  0.16171562  0.32702450  0.69054938    -0.11900
C298        C  0.21076464  0.34443144  0.67712839     0.01750
C299        C  0.21640526  0.38354485  0.64093455    -0.10420
C300        C  0.17305226  0.40528221  0.61805035     0.04240
C301        C  0.12448725  0.38744469  0.63202533    -0.09840
H302        H  0.15734031  0.29671300  0.71809414     0.09840
H303        H  0.25428358  0.39659038  0.63057828     0.07370
H304        H  0.09047526  0.40349097  0.61471072     0.07220
C305        C  0.11818492  0.66887732  0.67741173     0.04250
C306        C  0.16121900  0.69346141  0.69732665    -0.11900
C307        C  0.21015517  0.68178550  0.67821227     0.01750
C308        C  0.21589045  0.64568437  0.63894742    -0.10420
C309        C  0.17274840  0.62132372  0.61857470     0.04240
C310        C  0.12430352  0.63362094  0.63800200    -0.09840
H311        H  0.15686314  0.72062023  0.72808178     0.09840
H312        H  0.25371640  0.63639383  0.62487578     0.07370
H313        H  0.09049710  0.61516583  0.62289429     0.07220
O314        O  0.80588421  0.56591839  0.56143993    -0.70660
O315        O  0.80632492  0.46245148  0.45834756    -0.70870
O316        O  0.80600908  0.46310138  0.56197645    -0.70730
O317        O  0.80618431  0.56527562  0.45772716    -0.70740
O318        O  0.88911985  0.56390026  0.45875663    -0.70700
O319        O  0.88893984  0.46453903  0.56139804    -0.70720
O320        O  0.88925911  0.46329670  0.45996999    -0.70660
O321        O  0.88881579  0.56510876  0.56023611    -0.70850
V322        V  0.80740811  0.51420873  0.50984132     1.35240
V323        V  0.88712470  0.51423942  0.51005633     1.35170
C324        C  0.84793381  0.58290848  0.57845149     0.78580
C325        C  0.84848714  0.44499517  0.44208164     0.78640
C326        C  0.84807790  0.44634506  0.57920116     0.78510
C327        C  0.84831794  0.58210695  0.44081404     0.78470
C328        C  0.90622875  0.34322101  0.35846301     0.04250
C329        C  0.86325307  0.32340243  0.33365989    -0.11900
C330        C  0.81450254  0.34343428  0.34415458     0.01750
C331        C  0.80886840  0.38349949  0.37925728    -0.10420
C332        C  0.85193388  0.40366094  0.40394782     0.04240
C333        C  0.90024183  0.38324734  0.39295394    -0.09840
H334        H  0.86753014  0.29223646  0.30703902     0.09840
H335        H  0.77114007  0.39834789  0.38756949     0.07370
H336        H  0.93400640  0.39824923  0.41163083     0.07220
C337        C  0.90612110  0.68275335  0.35616145     0.04250
C338        C  0.86309251  0.70316538  0.33195284    -0.11900
C339        C  0.81428714  0.68357029  0.34287953     0.01750
C340        C  0.80861837  0.64350882  0.37794483    -0.10420
C341        C  0.85174274  0.62280802  0.40205320     0.04240
C342        C  0.90012650  0.64249093  0.39031332    -0.09840
H343        H  0.86736059  0.73450305  0.30558458     0.09840
H344        H  0.77082809  0.62914242  0.38673629     0.07370
H345        H  0.93394648  0.62705880  0.40854223     0.07220
C346        C  0.90592253  0.34896234  0.66781332     0.04250
C347        C  0.86272062  0.32789045  0.69110827    -0.11900
C348        C  0.81369041  0.34567370  0.67804969     0.01750
C349        C  0.80804826  0.38473126  0.64179075    -0.10420
C350        C  0.85137006  0.40605945  0.61850380     0.04240
C351        C  0.89991988  0.38786359  0.63213338    -0.09840
H352        H  0.86709295  0.29756645  0.71864578     0.09840
H353        H  0.77017693  0.39799365  0.63162931     0.07370
H354        H  0.93390033  0.40361120  0.61452180     0.07220
C355        C  0.90583908  0.66913849  0.67814084     0.04250
C356        C  0.89969690  0.63411822  0.63853302    -0.11900
C357        C  0.85125073  0.62187002  0.61913086     0.01750
C358        C  0.80811276  0.64608595  0.63974225    -0.10420
C359        C  0.81386705  0.68198894  0.67921890     0.04240
C360        C  0.86281765  0.69357777  0.69831741    -0.09840
H361        H  0.93351586  0.61579572  0.62324501     0.09840
H362        H  0.77027960  0.63685319  0.62567506     0.07370
H363        H  0.86720339  0.72058882  0.72919482     0.07220
C364        C  0.32161139  0.32068830  0.25518932     0.04250
C365        C  0.27785142  0.34219114  0.27731813    -0.11900
C366        C  0.25540780  0.31968746  0.32031421     0.01750
C367        C  0.27678320  0.27566207  0.34113888    -0.10420
C368        C  0.32085642  0.25444963  0.31952088     0.04240
C369        C  0.34326677  0.27697269  0.27652062    -0.09840
H370        H  0.26127240  0.37619445  0.26106828     0.09840
H371        H  0.25955603  0.25832944  0.37450686     0.07370
H372        H  0.37730323  0.26050515  0.25967483     0.07220
C373        C  0.03875555  0.63621964  0.71700063     0.24720
C374        C  0.06580368  0.67758605  0.69679288    -0.23390
C375        C  0.03887701  0.72152877  0.68277927     0.19630
C376        C  0.98518021  0.72162490  0.68304778     0.24660
C377        C  0.95828008  0.67778462  0.69733750    -0.23330
C378        C  0.98541644  0.63632363  0.71728416     0.19560
F379        F  0.96022135  0.59350412  0.73113833    -0.13290
F380        F  0.06396992  0.59332000  0.73064061    -0.15650
F381        F  0.95970305  0.76201598  0.66351418    -0.15660
F382        F  0.06425686  0.76184798  0.66302669    -0.13290
C383        C  0.03882117  0.30680934  0.63882555     0.24720
C384        C  0.06596120  0.33095933  0.67823782    -0.23390
C385        C  0.03908259  0.35049345  0.72040267     0.19630
C386        C  0.98542710  0.35060142  0.72043511     0.24660
C387        C  0.95842673  0.33121369  0.67828779    -0.23330
C388        C  0.98543362  0.30694795  0.63884033     0.19560
F389        F  0.96011657  0.28876415  0.59737552    -0.13290
F390        F  0.06403673  0.28850512  0.59734431    -0.15650
F391        F  0.96005988  0.37496026  0.75848344    -0.15660
F392        F  0.06457541  0.37477077  0.75840826    -0.13290
C393        C  0.03863012  0.72035635  0.39123466     0.24720
C394        C  0.06574909  0.70243686  0.34853055    -0.23390
C395        C  0.03897065  0.69082405  0.30341959     0.19630
C396        C  0.98529279  0.69084305  0.30331900     0.24660
C397        C  0.95835613  0.70251333  0.34832167    -0.23330
C398        C  0.98533043  0.72041924  0.39112028     0.19560
F399        F  0.96004787  0.73186559  0.43500610    -0.13290
F400        F  0.06374750  0.73174323  0.43522694    -0.15650
F401        F  0.95993023  0.67350730  0.26154772    -0.15660
F402        F  0.06448882  0.67350023  0.26173171    -0.13290
C403        C  0.03900732  0.33684962  0.30535764     0.24720
C404        C  0.06593685  0.32322415  0.34978038    -0.23390
C405        C  0.03890028  0.30388998  0.39188001     0.19630
C406        C  0.98555341  0.30415199  0.39200098     0.24660
C407        C  0.95849519  0.32370786  0.35000314    -0.23330
C408        C  0.98535148  0.33707797  0.30546389     0.19560
F409        F  0.95993253  0.35628694  0.26457941    -0.13290
F410        F  0.06441109  0.35588597  0.26439514    -0.15650
F411        F  0.96035538  0.29108534  0.43544536    -0.15660
F412        F  0.06418512  0.29062066  0.43522433    -0.13290
C413        C  0.72268100  0.03975821  0.64953331     0.24720
C414        C  0.69350521  0.06665173  0.68554934    -0.23390
C415        C  0.66826703  0.03998707  0.72457574     0.19630
C416        C  0.66794776  0.98688006  0.72439811     0.24660
C417        C  0.69286105  0.96010724  0.68519056    -0.23330
C418        C  0.72234523  0.98681747  0.64934299     0.19560
F419        F  0.74578064  0.96171075  0.61053903    -0.13290
F420        F  0.74638909  0.06477665  0.61087791    -0.15650
F421        F  0.63840903  0.96180962  0.75874340    -0.15660
F422        F  0.63898160  0.06524545  0.75904849    -0.13290
C423        C  0.30310194  0.04005783  0.68518053     0.24720
C424        C  0.34742837  0.06661772  0.69948221    -0.23390
C425        C  0.38902535  0.03973346  0.71996351     0.19630
C426        C  0.38888063  0.98689653  0.72012036     0.24660
C427        C  0.34713697  0.96013513  0.69978581    -0.23330
C428        C  0.30295576  0.98687890  0.68534192     0.19560
F429        F  0.26227716  0.96175632  0.66546289    -0.13290
F430        F  0.26255095  0.06529382  0.66516752    -0.15650
F431        F  0.43203374  0.96184537  0.73412531    -0.15660
F432        F  0.43229682  0.06461707  0.73386318    -0.13290
C433        C  0.72456386  0.03966238  0.37699746     0.24720
C434        C  0.69671173  0.06638921  0.33985824    -0.23390
C435        C  0.67333525  0.03969473  0.29970247     0.19630
C436        C  0.67316430  0.98662873  0.29984169     0.24660
C437        C  0.69634148  0.96001181  0.34015081    -0.23330
C438        C  0.72435707  0.98675595  0.37716056     0.19560
F439        F  0.74633002  0.96171439  0.41683202    -0.13290
F440        F  0.74670736  0.06479609  0.41653098    -0.15650
F441        F  0.64509957  0.96145554  0.26432286    -0.15660
F442        F  0.64539178  0.06484659  0.26408190    -0.13290
C443        C  0.34163946  0.03984208  0.30081378     0.24720
C444        C  0.32522604  0.06643288  0.34438196    -0.23390
C445        C  0.30278213  0.03973079  0.38501268     0.19630
C446        C  0.30242462  0.98691163  0.38482528     0.24660
C447        C  0.32457394  0.96012412  0.34403833    -0.23330
C448        C  0.34132686  0.98672508  0.30064693     0.19560
F449        F  0.36323207  0.96149659  0.26105943    -0.13290
F450        F  0.36377796  0.06499691  0.26135109    -0.15650
F451        F  0.28638762  0.96188770  0.42725425    -0.15660
F452        F  0.28703440  0.06473862  0.42759516    -0.13290
C453        C  0.68339116  0.72212976  0.03800565     0.24720
C454        C  0.69746266  0.67818410  0.06486412    -0.23390
C455        C  0.71761765  0.63677339  0.03779365     0.19630
C456        C  0.71765292  0.63677145  0.98447721     0.24660
C457        C  0.69755291  0.67819109  0.95742349    -0.23330
C458        C  0.68344552  0.72213491  0.98431561     0.19560
F459        F  0.66388402  0.76253023  0.95887476    -0.13290
F460        F  0.66377132  0.76251698  0.06345778    -0.15650
F461        F  0.73135834  0.59387722  0.95926031    -0.15660
F462        F  0.73130497  0.59388646  0.06298885    -0.13290
C463        C  0.72111875  0.34269377  0.03797769     0.24720
C464        C  0.67717184  0.32771849  0.06494862    -0.23390
C465        C  0.63559450  0.30730195  0.03790460     0.19630
C466        C  0.63541015  0.30754207  0.98456093     0.24660
C467        C  0.67682131  0.32815455  0.95745002    -0.23330
C468        C  0.72094870  0.34290181  0.98428663     0.19560
F469        F  0.76125166  0.36317820  0.95881400    -0.13290
F470        F  0.76155641  0.36281967  0.06338917    -0.15650
F471        F  0.59227754  0.29339316  0.95940853    -0.15660
F472        F  0.59261498  0.29297679  0.06319712    -0.13290
C473        C  0.30385589  0.68884454  0.03815745     0.24720
C474        C  0.34888045  0.70081503  0.06491123    -0.23390
C475        C  0.39136307  0.71914845  0.03779285     0.19630
C476        C  0.39114596  0.71941434  0.98448943     0.24660
C477        C  0.34846757  0.70128335  0.95749963    -0.23330
C478        C  0.30365297  0.68906742  0.98446861     0.19560
F479        F  0.26201944  0.67145758  0.95908651    -0.13290
F480        F  0.26239369  0.67107329  0.06367830    -0.15650
F481        F  0.43488390  0.73127061  0.95918431    -0.15660
F482        F  0.43529086  0.73078935  0.06288850    -0.13290
C483        C  0.35165090  0.30070630  0.03802147     0.24720
C484        C  0.33056939  0.34175258  0.06498887    -0.23390
C485        C  0.30462548  0.37987144  0.03800630     0.19630
C486        C  0.30460038  0.37990861  0.98463448     0.24660
C487        C  0.33052732  0.34183481  0.95753009    -0.23330
C488        C  0.35163497  0.30074843  0.98437182     0.19560
F489        F  0.37747033  0.26397827  0.95886781    -0.13290
F490        F  0.37750683  0.26390031  0.06341518    -0.15650
F491        F  0.28467118  0.42030261  0.95941995    -0.15660
F492        F  0.28473940  0.42023983  0.06333878    -0.13290
loop_ 
_geom_bond_atom_site_label_1 
_geom_bond_atom_site_label_2 
_geom_bond_distance 
_geom_bond_site_symmetry_2 
_ccdc_geom_bond_type 
C1            C2   1.403       .  A
C1            C6   1.403       .  A
C1          C250   1.471       .  S
C2            C3   1.402       .  A
C2            H7   1.084       .  S
C3            C4   1.401       .  A
C3          C359   1.470       .  S
C4            C5   1.401       .  A
C4            H8   1.084       .  S
C5            C6   1.402       .  A
C5          C148   1.470       .  S
C6            H9   1.084       .  S
C10          C11   1.401       .  A
C10          C15   1.402       .  A
C10          C80   1.468       .  S
C11          C12   1.401       .  A
C11          H16   1.084       .  S
C12          C13   1.401       .  A
C12         C289   1.468       .  S
C13          C14   1.400       .  A
C13          H17   1.084       .  S
C14          C15   1.401       .  A
C14         C221   1.468       .  S
C15          H18   1.084       .  S
C19          C20   1.402       .  A
C19          C24   1.402       .  A
C19         C141   1.470       .  S
C20          C21   1.401       .  A
C20          H25   1.084       .  S
C21          C22   1.402       .  A
C21         C198   1.471       .  S
C22          C23   1.403       .  A
C22          H26   1.084       .  S
C23          C24   1.402       .  A
C23         C348   1.471       .  S
C24          H27   1.084       .  S
C28          C29   1.403       .  A
C28          C33   1.402       .  A
C28         C191   1.470       .  S
C29          C30   1.403       .  A
C29          H34   1.084       .  S
C30          C31   1.401       .  A
C30         C298   1.471       .  S
C31          C32   1.402       .  A
C31          H35   1.084       .  S
C32          C33   1.401       .  A
C32         C121   1.469       .  S
C33          H36   1.084       .  S
C37          C38   1.400       .  A
C37          C42   1.401       .  A
C37         C130   1.469       .  S
C38          C39   1.402       .  A
C38          H43   1.084       .  S
C39          C40   1.403       .  A
C39         C307   1.470       .  S
C40          C41   1.403       .  A
C40          H44   1.083       .  S
C41          C42   1.402       .  A
C41         C239   1.471       .  S
C42          H45   1.084       .  S
C46          C47   1.401       .  A
C46          C51   1.400       .  A
C46         C182   1.469       .  S
C47          C48   1.403       .  A
C47          H52   1.084       .  S
C48          C49   1.402       .  A
C48          C89   1.470       .  S
C49          C50   1.402       .  A
C49          H53   1.084       .  S
C50          C51   1.401       .  A
C50         C330   1.469       .  S
C51          H54   1.084       .  S
O55          V63   1.878       .  S
O55          C65   1.261       .  A
O56          V63   1.878       .  S
O56          C66   1.261       .  A
O57          V63   1.878       .  S
O57          C67   1.261       .  A
O58          V63   1.878       .  S
O58          C68   1.261       .  A
O59          V64   1.918       .  S
O59          C68   1.268       .  A
O60          V64   1.918       .  S
O60          C67   1.268       .  A
O61          V64   1.918       .  S
O61          C66   1.268       .  A
O62          V64   1.918       .  S
O62          C65   1.268       .  A
V63          V64   2.085       .  T
C65          C71   1.480       .  S
C66          C98   1.481       .  S
C67          C91   1.481       .  S
C68          C82   1.480       .  S
C69          C70   1.397       .  A
C69          C74   1.399       .  A
C69         C484   1.475       .  S
C70          C71   1.403       .  A
C70          H75   1.084       .  S
C71          C72   1.404       .  A
C72          C73   1.408       .  A
C72          H76   1.083       .  S
C73          C74   1.407       .  A
C73         C364   1.468       .  S
C74          H77   1.084       .  S
C78          C79   1.399       .  A
C78          C83   1.398       .  A
C78         C474   1.477       .  S
C79          C80   1.407       .  A
C79          H84   1.084       .  S
C80          C81   1.408       .  A
C81          C82   1.403       .  A
C81          H85   1.083       .  S
C82          C83   1.403       .  A
C83          H86   1.084       .  S
C87          C88   1.399       .  A
C87          C92   1.397       .  A
C87         C464   1.477       .  S
C88          C89   1.408       .  A
C88          H93   1.084       .  S
C89          C90   1.409       .  A
C90          C91   1.404       .  A
C90          H94   1.083       .  S
C91          C92   1.403       .  A
C92          H95   1.084       .  S
C96          C97   1.398       .  A
C96         C101   1.399       .  A
C96         C454   1.477       .  S
C97          C98   1.403       .  A
C97         H102   1.084       .  S
C98          C99   1.404       .  A
C99         C100   1.408       .  A
C99         H103   1.083       .  S
C100        C101   1.407       .  A
C100        C259   1.468       .  S
C101        H104   1.084       .  S
O105        V113   1.919       .  S
O105        C115   1.268       .  A
O106        V113   1.918       .  S
O106        C116   1.268       .  A
O107        V113   1.919       .  S
O107        C117   1.268       .  A
O108        V113   1.919       .  S
O108        C118   1.268       .  A
O109        V114   1.879       .  S
O109        C118   1.261       .  A
O110        V114   1.878       .  S
O110        C117   1.261       .  A
O111        V114   1.879       .  S
O111        C116   1.261       .  A
O112        V114   1.879       .  S
O112        C115   1.261       .  A
V113        V114   2.085       .  T
C115        C150   1.482       .  S
C116        C123   1.481       .  S
C117        C132   1.482       .  S
C118        C139   1.482       .  S
C119        C120   1.399       .  A
C119        C124   1.397       .  A
C119        C487   1.475       .  S
C120        C121   1.407       .  A
C120        H125   1.084       .  S
C121        C122   1.408       .  A
C122        C123   1.404       .  A
C122        H126   1.083       .  S
C123        C124   1.403       .  A
C124        H127   1.084       .  S
C128        C129   1.399       .  A
C128        C133   1.398       .  A
C128        C477   1.477       .  S
C129        C130   1.407       .  A
C129        H134   1.084       .  S
C130        C131   1.409       .  A
C131        C132   1.404       .  A
C131        H135   1.083       .  S
C132        C133   1.402       .  A
C133        H136   1.084       .  S
C137        C138   1.398       .  A
C137        C142   1.400       .  A
C137        C467   1.477       .  S
C138        C139   1.403       .  A
C138        H143   1.084       .  S
C139        C140   1.404       .  A
C140        C141   1.409       .  A
C140        H144   1.083       .  S
C141        C142   1.408       .  A
C142        H145   1.084       .  S
C146        C147   1.399       .  A
C146        C151   1.398       .  A
C146        C457   1.477       .  S
C147        C148   1.407       .  A
C147        H152   1.084       .  S
C148        C149   1.409       .  A
C149        C150   1.404       .  A
C149        H153   1.083       .  S
C150        C151   1.403       .  A
C151        H154   1.084       .  S
O155        V163   1.916       .  S
O155        C165   1.268       .  A
O156        V163   1.917       .  S
O156        C166   1.268       .  A
O157        V163   1.917       .  S
O157        C167   1.268       .  A
O158        V163   1.917       .  S
O158        C168   1.268       .  A
O159        V164   1.880       .  S
O159        C168   1.262       .  A
O160        V164   1.880       .  S
O160        C167   1.261       .  A
O161        V164   1.881       .  S
O161        C166   1.262       .  A
O162        V164   1.880       .  S
O162        C165   1.261       .  A
V163        V164   2.085       .  T
C165        C171   1.480       .  S
C166        C200   1.482       .  S
C167        C180   1.481       .  S
C168        C189   1.481       .  S
C169        C170   1.398       .  A
C169        C174   1.399       .  A
C169        C444   1.475       .  S
C170        C171   1.403       .  A
C170        H175   1.084       .  S
C171        C172   1.403       .  A
C172        C173   1.408       .  A
C172        H176   1.084       .  S
C173        C174   1.406       .  A
C173        C368   1.467       .  S
C174        H177   1.083       .  S
C178        C179   1.397       .  A
C178        C183   1.399       .  A
C178        C434   1.474       .  S
C179        C180   1.403       .  A
C179        H184   1.084       .  S
C180        C181   1.404       .  A
C181        C182   1.408       .  A
C181        H185   1.084       .  S
C182        C183   1.406       .  A
C183        H186   1.083       .  S
C187        C188   1.398       .  A
C187        C192   1.401       .  A
C187        C424   1.478       .  S
C188        C189   1.403       .  A
C188        H193   1.084       .  S
C189        C190   1.404       .  A
C190        C191   1.408       .  A
C190        H194   1.083       .  S
C191        C192   1.408       .  A
C192        H195   1.083       .  S
C196        C197   1.401       .  A
C196        C201   1.397       .  A
C196        C414   1.476       .  S
C197        C198   1.408       .  A
C197        H202   1.083       .  S
C198        C199   1.409       .  A
C199        C200   1.404       .  A
C199        H203   1.084       .  S
C200        C201   1.403       .  A
C201        H204   1.084       .  S
O205        V213   1.881       .  S
O205        C215   1.261       .  A
O206        V213   1.879       .  S
O206        C216   1.261       .  A
O207        V213   1.880       .  S
O207        C217   1.262       .  A
O208        V213   1.880       .  S
O208        C218   1.261       .  A
O209        V214   1.916       .  S
O209        C218   1.268       .  A
O210        V214   1.917       .  S
O210        C217   1.268       .  A
O211        V214   1.916       .  S
O211        C216   1.268       .  A
O212        V214   1.917       .  S
O212        C215   1.268       .  A
V213        V214   2.085       .  T
C215        C248   1.481       .  S
C216        C223   1.480       .  S
C217        C241   1.481       .  S
C218        C230   1.480       .  S
C219        C220   1.399       .  A
C219        C224   1.398       .  A
C219        C447   1.475       .  S
C220        C221   1.406       .  A
C220        H225   1.083       .  S
C221        C222   1.408       .  A
C222        C223   1.403       .  A
C222        H226   1.084       .  S
C223        C224   1.402       .  A
C224        H227   1.084       .  S
C228        C229   1.398       .  A
C228        C233   1.399       .  A
C228        C437   1.474       .  S
C229        C230   1.403       .  A
C229        H234   1.084       .  S
C230        C231   1.404       .  A
C231        C232   1.408       .  A
C231        H235   1.084       .  S
C232        C233   1.406       .  A
C232        C255   1.468       .  S
C233        H236   1.083       .  S
C237        C238   1.401       .  A
C237        C242   1.398       .  A
C237        C427   1.478       .  S
C238        C239   1.408       .  A
C238        H243   1.083       .  S
C239        C240   1.409       .  A
C240        C241   1.404       .  A
C240        H244   1.084       .  S
C241        C242   1.402       .  A
C242        H245   1.084       .  S
C246        C247   1.398       .  A
C246        C251   1.400       .  A
C246        C417   1.476       .  S
C247        C248   1.404       .  A
C247        H252   1.084       .  S
C248        C249   1.404       .  A
C249        C250   1.408       .  A
C249        H253   1.084       .  S
C250        C251   1.408       .  A
C251        H254   1.083       .  S
C255        C256   1.401       .  A
C255        C260   1.402       .  A
C256        C257   1.400       .  A
C256        H261   1.084       .  S
C257        C258   1.400       .  A
C257        C339   1.468       .  S
C258        C259   1.402       .  A
C258        H262   1.084       .  S
C259        C260   1.402       .  A
C260        H263   1.084       .  S
O264        V272   1.878       .  S
O264        C274   1.261       .  A
O265        V272   1.878       .  S
O265        C275   1.261       .  A
O266        V272   1.877       .  S
O266        C276   1.261       .  A
O267        V272   1.878       .  S
O267        C277   1.261       .  A
O268        V273   1.919       .  S
O268        C277   1.268       .  A
O269        V273   1.918       .  S
O269        C276   1.268       .  A
O270        V273   1.919       .  S
O270        C275   1.268       .  A
O271        V273   1.919       .  S
O271        C274   1.268       .  A
V272        V273   2.085       .  T
C274        C280   1.481       .  S
C275        C309   1.482       .  S
C276        C291   1.480       .  S
C277        C300   1.482       .  S
C278        C279   1.398       .  A
C278        C283   1.399       .  A
C278        C404   1.477       .  S
C279        C280   1.403       .  A
C279        H284   1.084       .  S
C280        C281   1.403       .  A
C281        C282   1.408       .  A
C281        H285   1.084       .  S
C282        C283   1.407       .  A
C282        C366   1.469       .  S
C283        H286   1.083       .  S
C287        C288   1.399       .  A
C287        C292   1.398       .  A
C287        C394   1.477       .  S
C288        C289   1.407       .  A
C288        H293   1.083       .  S
C289        C290   1.408       .  A
C290        C291   1.403       .  A
C290        H294   1.084       .  S
C291        C292   1.403       .  A
C292        H295   1.084       .  S
C296        C297   1.399       .  A
C296        C301   1.397       .  A
C296        C384   1.476       .  S
C297        C298   1.408       .  A
C297        H302   1.083       .  S
C298        C299   1.409       .  A
C299        C300   1.405       .  A
C299        H303   1.084       .  S
C300        C301   1.403       .  A
C301        H304   1.084       .  S
C305        C306   1.400       .  A
C305        C310   1.398       .  A
C305        C374   1.479       .  S
C306        C307   1.408       .  A
C306        H311   1.083       .  S
C307        C308   1.409       .  A
C308        C309   1.404       .  A
C308        H312   1.084       .  S
C309        C310   1.403       .  A
C310        H313   1.084       .  S
O314        V322   1.920       .  S
O314        C324   1.268       .  A
O315        V322   1.918       .  S
O315        C325   1.268       .  A
O316        V322   1.919       .  S
O316        C326   1.268       .  A
O317        V322   1.918       .  S
O317        C327   1.268       .  A
O318        V323   1.877       .  S
O318        C327   1.261       .  A
O319        V323   1.879       .  S
O319        C326   1.261       .  A
O320        V323   1.878       .  S
O320        C325   1.261       .  A
O321        V323   1.878       .  S
O321        C324   1.261       .  A
V322        V323   2.085       .  T
C324        C357   1.482       .  S
C325        C332   1.481       .  S
C326        C350   1.482       .  S
C327        C341   1.481       .  S
C328        C329   1.399       .  A
C328        C333   1.398       .  A
C328        C407   1.477       .  S
C329        C330   1.407       .  A
C329        H334   1.083       .  S
C330        C331   1.408       .  A
C331        C332   1.403       .  A
C331        H335   1.084       .  S
C332        C333   1.403       .  A
C333        H336   1.084       .  S
C337        C338   1.399       .  A
C337        C342   1.398       .  A
C337        C397   1.477       .  S
C338        C339   1.407       .  A
C338        H343   1.083       .  S
C339        C340   1.408       .  A
C340        C341   1.403       .  A
C340        H344   1.084       .  S
C341        C342   1.402       .  A
C342        H345   1.084       .  S
C346        C347   1.400       .  A
C346        C351   1.397       .  A
C346        C387   1.476       .  S
C347        C348   1.408       .  A
C347        H352   1.083       .  S
C348        C349   1.409       .  A
C349        C350   1.405       .  A
C349        H353   1.084       .  S
C350        C351   1.404       .  A
C351        H354   1.084       .  S
C355        C356   1.397       .  A
C355        C360   1.400       .  A
C355        C377   1.478       .  S
C356        C357   1.403       .  A
C356        H361   1.084       .  S
C357        C358   1.404       .  A
C358        C359   1.409       .  A
C358        H362   1.084       .  S
C359        C360   1.408       .  A
C360        H363   1.083       .  S
C364        C365   1.402       .  A
C364        C369   1.402       .  A
C365        C366   1.401       .  A
C365        H370   1.084       .  S
C366        C367   1.400       .  A
C367        C368   1.400       .  A
C367        H371   1.084       .  S
C368        C369   1.401       .  A
C369        H372   1.084       .  S
C373        C374   1.405       .  A
C373        C378   1.395   1_455  A
C373        F380   1.358       .  S
C374        C375   1.406       .  A
C375        C376   1.404   1_455  A
C375        F382   1.357       .  S
C376        C377   1.406       .  A
C376        F381   1.357       .  S
C377        C378   1.405       .  A
C378        F379   1.358       .  S
C383        C384   1.404       .  A
C383        C388   1.396   1_455  A
C383        F390   1.358       .  S
C384        C385   1.405       .  A
C385        C386   1.403   1_455  A
C385        F392   1.358       .  S
C386        C387   1.405       .  A
C386        F391   1.358       .  S
C387        C388   1.405       .  A
C388        F389   1.358       .  S
C393        C394   1.405       .  A
C393        C398   1.394   1_455  A
C393        F400   1.358       .  S
C394        C395   1.406       .  A
C395        C396   1.404   1_455  A
C395        F402   1.357       .  S
C396        C397   1.406       .  A
C396        F401   1.357       .  S
C397        C398   1.405       .  A
C398        F399   1.358       .  S
C403        C404   1.405       .  A
C403        C408   1.403   1_455  A
C403        F410   1.357       .  S
C404        C405   1.405       .  A
C405        C406   1.395   1_455  A
C405        F412   1.358       .  S
C406        C407   1.405       .  A
C406        F411   1.358       .  S
C407        C408   1.406       .  A
C408        F409   1.357       .  S
C413        C414   1.405       .  A
C413        C418   1.398   1_545  A
C413        F420   1.358       .  S
C414        C415   1.405       .  A
C415        C416   1.402   1_545  A
C415        F422   1.358       .  S
C416        C417   1.405       .  A
C416        F421   1.358       .  S
C417        C418   1.404       .  A
C418        F419   1.358       .  S
C423        C424   1.406       .  A
C423        C428   1.404   1_545  A
C423        F430   1.357       .  S
C424        C425   1.405       .  A
C425        C426   1.395   1_545  A
C425        F432   1.358       .  S
C426        C427   1.405       .  A
C426        F431   1.358       .  S
C427        C428   1.406       .  A
C428        F429   1.357       .  S
C433        C434   1.404       .  A
C433        C438   1.397   1_545  A
C433        F440   1.358       .  S
C434        C435   1.405       .  A
C435        C436   1.401   1_545  A
C435        F442   1.358       .  S
C436        C437   1.405       .  A
C436        F441   1.358       .  S
C437        C438   1.404       .  A
C438        F439   1.358       .  S
C443        C444   1.405       .  A
C443        C448   1.403   1_545  A
C443        F450   1.357       .  S
C444        C445   1.404       .  A
C445        C446   1.395   1_545  A
C445        F452   1.358       .  S
C446        C447   1.404       .  A
C446        F451   1.358       .  S
C447        C448   1.405       .  A
C448        F449   1.358       .  S
C453        C454   1.406       .  A
C453        C458   1.404   1_554  A
C453        F460   1.357       .  S
C454        C455   1.405       .  A
C455        C456   1.394   1_554  A
C455        F462   1.358       .  S
C456        C457   1.405       .  A
C456        F461   1.358       .  S
C457        C458   1.406       .  A
C458        F459   1.357       .  S
C463        C464   1.406       .  A
C463        C468   1.404   1_554  A
C463        F470   1.357       .  S
C464        C465   1.405       .  A
C465        C466   1.395   1_554  A
C465        F472   1.358       .  S
C466        C467   1.405       .  A
C466        F471   1.358       .  S
C467        C468   1.406       .  A
C468        F469   1.357       .  S
C473        C474   1.406       .  A
C473        C478   1.404   1_554  A
C473        F480   1.357       .  S
C474        C475   1.405       .  A
C475        C476   1.394   1_554  A
C475        F482   1.358       .  S
C476        C477   1.405       .  A
C476        F481   1.358       .  S
C477        C478   1.406       .  A
C478        F479   1.357       .  S
C483        C484   1.405       .  A
C483        C488   1.403   1_554  A
C483        F490   1.358       .  S
C484        C485   1.404       .  A
C485        C486   1.396   1_554  A
C485        F492   1.358       .  S
C486        C487   1.404       .  A
C486        F491   1.358       .  S
C487        C488   1.405       .  A
C488        F489   1.358       .  S
