geometry optimzed in LAMMPS
_audit_creation_date              2020-12-01 
_audit_creation_method            'lammps2cif' 
_symmetry_space_group_name_H-M    'P1' 
_symmetry_Int_Tables_number       1 
_symmetry_cell_setting            triclinic 
loop_ 
_symmetry_equiv_pos_as_xyz 
  x,y,z 
_cell_length_a                    45.16918696 
_cell_length_b                    31.593953400625377 
_cell_length_c                    46.55410551862329 
_cell_angle_alpha                 88.90413914756732 
_cell_angle_beta                  128.4573978456764 
_cell_angle_gamma                 91.87335823018094 
loop_ 
_atom_site_label 
_atom_site_type_symbol 
_atom_site_fract_x 
_atom_site_fract_y 
_atom_site_fract_z 
_atom_site_charge 
O1          O  0.25889129  0.00012373  0.44544879    -0.57400
C2          C  0.20981619  0.48150415  0.33425886     0.75200
O3          O  0.31645625  0.01915834  0.39509349    -0.58600
C4          C  0.29155003  0.99878043  0.47646492     0.75200
C5          C  0.31378387  0.40432113  0.43001885     0.77500
Cd6        Cd  0.27973911  0.48280482  0.41048929     1.37500
O7          O  0.21070611  0.47733635  0.36195417    -0.57400
O8          O  0.28221812  0.40852926  0.42330996    -0.56300
C9          C  0.31110952  0.05453105  0.40324812     0.77500
O10         O  0.32938378  0.43717887  0.42836502    -0.58600
O11         O  0.24168952  0.48422826  0.34132106    -0.57100
O12         O  0.31916276  0.99166728  0.47686680    -0.57100
O13         O  0.29838398  0.05471112  0.42091354    -0.56200
C14         C  0.30911726  0.27643820  0.35427745     0.86900
C15         C  0.32339283  0.29355623  0.33366917    -0.53400
C16         C  0.31717588  0.26624823  0.30819075     0.09800
C17         C  0.29477173  0.22506088  0.30399733     0.20700
C18         C  0.26642947  0.26668483  0.32360385    -0.54100
C19         C  0.25781138  0.24075732  0.29588276     0.09900
C20         C  0.32768150  0.23444990  0.36906211    -0.53600
C21         C  0.31867670  0.20649340  0.34297522     0.10500
H22         H  0.33917757  0.32312082  0.33981205     0.15000
H23         H  0.29104376  0.20052808  0.28536695     0.00700
H24         H  0.24491514  0.27995783  0.32393019     0.15300
H25         H  0.34142291  0.22499362  0.39733129     0.15100
C26         C  0.21704226  0.23739112  0.25835562     0.30400
C27         C  0.14671467  0.23621380  0.19037063     0.30400
C28         C  0.19109597  0.27654440  0.24855095    -0.05800
C29         C  0.21591224  0.23583202  0.22462124    -0.06600
C30         C  0.19115187  0.19789982  0.25062710    -0.06500
C31         C  0.15520770  0.27507310  0.21437594    -0.05800
C32         C  0.18069527  0.23781094  0.19044626    -0.06600
C33         C  0.15537242  0.19719564  0.21597940    -0.06500
C34         C  0.13902969  0.31460205  0.20829387    -0.31900
N35         N  0.16344421  0.34037149  0.23776732     0.14600
C36         C  0.19559747  0.31803215  0.26158486    -0.31900
H37         H  0.22126777  0.33216605  0.28549992     0.16600
C38         C  0.18687566  0.24638316  0.16517924    -0.30800
N39         N  0.22475620  0.24607598  0.18307347     0.13400
C40         C  0.24172620  0.23630155  0.21826316    -0.30800
C41         C  0.13940825  0.15667567  0.21197530    -0.31100
N42         N  0.16387319  0.13263950  0.24260537     0.13900
H43         H  0.11259717  0.14504552  0.18758982     0.16500
C44         C  0.19570487  0.15744216  0.26582710    -0.31100
H45         H  0.22114774  0.14599724  0.29075388     0.16500
H46         H  0.27073864  0.22963617  0.23707780     0.16500
H47         H  0.11220961  0.32430031  0.18340965     0.16600
H48         H  0.16568654  0.25382236  0.13644292     0.16500
C49         C  0.01314925  0.00623820  0.12848286     0.86900
C50         C  0.99413154  0.02226255  0.14455666    -0.53400
C51         C  0.99974449  0.49823891  0.17146061     0.09800
C52         C  0.02711869  0.46180313  0.18260406     0.20700
C53         C  0.05538712  0.00468733  0.16167200    -0.54100
C54         C  0.06336653  0.48282005  0.18980055     0.09900
C55         C  0.99999829  0.46080429  0.11799572    -0.53600
C56         C  0.00642430  0.43710094  0.14614357     0.10500
H57         H  0.97684825  0.05006297  0.13471809     0.15000
H58         H  0.03280152  0.44226151  0.20553694     0.00700
H59         H  0.07735457  0.02046372  0.16230456     0.15300
H60         H  0.98716187  0.44802081  0.09096006     0.15100
C61         C  0.10407209  0.48380220  0.22660371     0.30400
C62         C  0.17276245  0.48297063  0.29523191     0.30400
C63         C  0.13031048  0.02361540  0.23802730    -0.05800
C64         C  0.10326688  0.48323255  0.25874833    -0.06600
C65         C  0.12938461  0.44541178  0.23500013    -0.06500
C66         C  0.16552041  0.02330626  0.27292856    -0.05800
C67         C  0.13760696  0.48095261  0.29381238    -0.06600
C68         C  0.16451204  0.44545852  0.26986021    -0.06500
C69         C  0.18212712  0.06393618  0.27822451    -0.31900
N70         N  0.15814954  0.08882061  0.24792998     0.14600
C71         C  0.12627975  0.06454625  0.22392555    -0.31900
H72         H  0.10105276  0.07659054  0.19880537     0.16600
C73         C  0.13079889  0.49327962  0.31782053    -0.30800
N74         N  0.09406288  0.50372106  0.29806123     0.13400
C75         C  0.07977991  0.50348274  0.26269819    -0.30800
C76         C  0.18095232  0.40689030  0.27396860    -0.31100
N77         N  0.15728532  0.38310181  0.24277037     0.13900
H78         H  0.20746229  0.39634330  0.29875567     0.16500
C79         C  0.12554324  0.40637160  0.21893972    -0.31100
H80         H  0.10076257  0.39535250  0.19243851     0.16500
H81         H  0.05782615  0.52389298  0.24206797     0.16500
H82         H  0.20903409  0.07476076  0.30301375     0.16600
H83         H  0.15143491  0.49842332  0.34705347     0.16500
O84         O  0.06008980  0.25184542  0.04232778    -0.57400
C85         C  0.10929484  0.23590204  0.15161823     0.75200
O86         O  0.00712499  0.24408607  0.10717364    -0.58600
C87         C  0.02785259  0.25490598  0.01114211     0.75200
C88         C  0.01286943  0.14783922  0.06049177     0.77500
Cd89       Cd  0.03635933  0.23390428  0.07748202     1.37500
O90         O  0.09975927  0.26613788  0.12919272    -0.57400
O91         O  0.04577018  0.16110333  0.07371313    -0.56300
C92         C  0.99985820  0.28243380  0.09798574     0.77500
O93         O  0.98919727  0.17559733  0.05256650    -0.58600
O94         O  0.08624189  0.20475310  0.13926735    -0.57100
O95         O  0.99965718  0.25176600  0.01083593    -0.57100
O96         O  0.00517948  0.29664217  0.07584130    -0.56200
O97         O  0.32737410  0.99549094  0.04118463    -0.57400
C98         C  0.36578662  0.51605756  0.14945708     0.75200
O99         O  0.26202072  0.04077608  0.08195274    -0.58600
C100        C  0.29644014  0.00366764  0.00997988     0.75200
C101        C  0.25500514  0.43508059  0.05893862     0.77500
Cd102      Cd  0.30108916  0.00646271  0.07331986     1.37500
O103        O  0.35843289  0.54290719  0.12542566    -0.57400
O104        O  0.28567758  0.43373055  0.06337849    -0.56300
C105        C  0.27187255  0.07660685  0.07736003     0.77500
O106        O  0.24407651  0.47111755  0.05954393    -0.58600
O107        O  0.34372937  0.48393307  0.13753226    -0.57100
O108        O  0.26937103  0.01530113  0.00897212    -0.57100
O109        O  0.28892182  0.07804706  0.06377415    -0.56200
C110        C  0.06869722  0.07119679  0.34576929     0.86900
C111        C  0.08890690  0.05785594  0.33095318    -0.53400
C112        C  0.07613639  0.52172540  0.31179945     0.09800
C113        C  0.04375602  0.49930155  0.31050856     0.20700
C114        C  0.52654508  0.06989339  0.31145565    -0.54100
C115        C  0.51154448  0.53174122  0.29327656     0.09900
C116        C  0.07265213  0.03413445  0.36959141    -0.53600
C117        C  0.06011216  0.49709391  0.35072171     0.10500
H118        H  0.11177760  0.07631233  0.33466124     0.15000
H119        H  0.03425705  0.46782410  0.29694468     0.00700
H120        H  0.51092382  0.09826191  0.30182059     0.15300
H121        H  0.08254448  0.53660509  0.39648461     0.15100
C122        C  0.46965161  0.52444132  0.25804545     0.30400
C123        C  0.40116255  0.52029332  0.18913565     0.30400
C124        C  0.44154825  0.06144013  0.24769143    -0.05800
C125        C  0.47025520  0.52304134  0.22546510    -0.06600
C126        C  0.44525994  0.48320536  0.25058481    -0.06500
C127        C  0.40729394  0.05971137  0.21212897    -0.05800
C128        C  0.43600781  0.52356840  0.19071168    -0.06600
C129        C  0.41016780  0.48162669  0.21529564    -0.06500
C130        C  0.38855288  0.09779891  0.20614703    -0.31900
N131        N  0.40936987  0.12208541  0.23746322     0.14600
C132        C  0.44049278  0.09905775  0.26302248    -0.31900
H133        H  0.46031536  0.10877032  0.29128386     0.16600
C134        C  0.44256766  0.51449941  0.16600094    -0.30800
N135        N  0.47925816  0.50401601  0.18515815     0.13400
C136        C  0.49401428  0.50393076  0.22082590    -0.30800
C137        C  0.39422491  0.44128349  0.21124091    -0.31100
N138        N  0.41765546  0.41760133  0.24230618     0.13900
H139        H  0.36788723  0.42951937  0.18648572     0.16500
C140        C  0.44920406  0.44295300  0.26645848    -0.31100
H141        H  0.47393248  0.43267979  0.29298063     0.16500
H142        H  0.01720149  0.48531567  0.24183734     0.16500
H143        H  0.36228018  0.10726868  0.18049657     0.16600
H144        H  0.42163794  0.51229881  0.13646644     0.16500
C145        C  0.25244205  0.29366087  0.12721013     0.86900
C146        C  0.23250672  0.29161033  0.14463174    -0.53400
C147        C  0.24515001  0.25991251  0.16987626     0.09800
C148        C  0.27891389  0.23568376  0.17777545     0.20700
C149        C  0.29517877  0.29869006  0.15946671    -0.54100
C150        C  0.30989475  0.26920756  0.18667395     0.09900
C151        C  0.24644606  0.24916915  0.11301423    -0.53600
C152        C  0.26162249  0.21928299  0.13947554     0.10500
H153        H  0.20825989  0.30980417  0.13578225     0.15000
H154        H  0.28958605  0.21015264  0.19853051     0.00700
H155        H  0.31193589  0.32287870  0.15880938     0.15300
H156        H  0.23357736  0.24175931  0.08465730     0.15100
C157        C  0.35149739  0.27037637  0.22326504     0.30400
C158        C  0.41967906  0.26788173  0.29302908     0.30400
C159        C  0.37999827  0.30894573  0.23379933    -0.05800
C160        C  0.35045564  0.27233781  0.25531492    -0.06600
C161        C  0.37594250  0.22966557  0.23293910    -0.06500
C162        C  0.41477860  0.30761058  0.26944243    -0.05800
C163        C  0.38418114  0.26866699  0.29017276    -0.06600
C164        C  0.41081932  0.22919598  0.26825382    -0.06500
C165        C  0.43283824  0.34784958  0.27633402    -0.31900
N166        N  0.41058975  0.37371830  0.24652153     0.14600
C167        C  0.37827388  0.35052877  0.22129902    -0.31900
H168        H  0.35422600  0.36450679  0.19674344     0.16600
C169        C  0.37572632  0.26666047  0.31405074    -0.30800
N170        N  0.33791794  0.27115372  0.29426996     0.13400
C171        C  0.32317652  0.27849590  0.25906304    -0.30800
C172        C  0.42629829  0.18939557  0.27334328    -0.31100
N173        N  0.40252087  0.16481279  0.24256642     0.13900
H174        H  0.45271525  0.17907081  0.29835635     0.16500
C175        C  0.37156669  0.18905349  0.21814800    -0.33100
H176        H  0.34693784  0.17742207  0.19229178     0.16500
H177        H  0.29519241  0.28962811  0.23800540     0.16500
H178        H  0.45930200  0.35804897  0.30188921     0.16600
H179        H  0.39531741  0.26161064  0.34338945     0.16500
O180        O  0.49434996  0.25866496  0.44589836    -0.57400
C181        C  0.45455620  0.26714382  0.33330773     0.75200
O182        O  0.56924316  0.32266744  0.42969628    -0.58600
C183        C  0.02299279  0.25815600  0.47640714     0.75200
C184        C  0.56560998  0.21628553  0.40621718     0.77500
Cd185      Cd  0.52092014  0.27082793  0.41178906     1.37500
O186        O  0.47684081  0.29879842  0.34834559    -0.57400
O187        O  0.54676115  0.20227997  0.41631050    -0.56300
C188        C  0.54661336  0.35295978  0.41509447     0.77500
O189        O  0.06659019  0.25506871  0.40380658    -0.58600
O190        O  0.46139761  0.23667964  0.35475323    -0.57100
O191        O  0.05053718  0.27205255  0.47809144    -0.57100
O192        O  0.51356975  0.34604253  0.40513858    -0.56200
C193        C  0.10420562  0.11630458  0.40393386    -0.08800
C194        C  0.08286150  0.11398463  0.36543745     0.07400
C195        C  0.57067495  0.15314814  0.34352407    -0.02600
C196        C  0.56899547  0.18904333  0.35943761    -0.07000
C197        C  0.58195455  0.18759256  0.39569856     0.06500
C198        C  0.10346946  0.15228795  0.42022267    -0.02000
Br199      Br  0.12858184  0.15205877  0.47189655    -0.01700
H200        H  0.11975648  0.08971148  0.42146008     0.10400
H201        H  0.55454448  0.21659557  0.34255129     0.08500
Br202      Br  0.55341250  0.15749443  0.29402396    -0.02200
C203        C  0.07942888  0.42565457  0.37563664    -0.08800
C204        C  0.05702534  0.46009964  0.36774313     0.07400
C205        C  0.53394195  0.46209094  0.37811385    -0.02600
C206        C  0.53319691  0.42750971  0.39655529    -0.07000
C207        C  0.55619266  0.39283199  0.40571080     0.06500
C208        C  0.07857367  0.39043590  0.39347549    -0.02000
Br209      Br  0.10862847  0.34367791  0.40046317    -0.01700
H210        H  0.09750213  0.42615883  0.36772423     0.10400
H211        H  0.51326122  0.42688934  0.40221404     0.08500
Br212      Br  0.50023127  0.50743694  0.36496734    -0.02200
C213        C  0.25196772  0.35869020  0.05747193    -0.08800
C214        C  0.23625933  0.39572955  0.05772273     0.07400
C215        C  0.21430721  0.39416219  0.06971686    -0.02600
C216        C  0.21650233  0.35890975  0.08943280    -0.07000
C217        C  0.24049916  0.32557609  0.09730353     0.06500
C218        C  0.25652960  0.32478624  0.07893280    -0.02000
Br219      Br  0.29099520  0.28333377  0.08618079    -0.01700
H220        H  0.26687418  0.35879721  0.04610646     0.10400
H221        H  0.20194521  0.36004862  0.10093397     0.08500
Br222      Br  0.18402653  0.44025391  0.06335157    -0.02200
C223        C  0.29375365  0.18042244  0.12337476    -0.08800
C224        C  0.26860027  0.17903119  0.13127627     0.07400
C225        C  0.24310157  0.14496370  0.11991058    -0.02600
C226        C  0.24310901  0.11228325  0.10041946    -0.07000
C227        C  0.26777344  0.11421548  0.09158295     0.06500
C228        C  0.29327716  0.14895718  0.10313729    -0.02000
Br229      Br  0.32888556  0.15673376  0.09350124    -0.01700
H230        H  0.31267694  0.20764402  0.13154675     0.10400
H231        H  0.22383761  0.08541083  0.09215333     0.08500
Br232      Br  0.20680797  0.14334673  0.12863730    -0.02200
C233        C  0.03313806  0.03727683  0.09206364    -0.08800
C234        C  0.00482067  0.03138638  0.09601136     0.07400
C235        C  0.97079966  0.05314008  0.07132603    -0.02600
C236        C  0.97122503  0.08961990  0.05414440    -0.07000
C237        C  0.00441159  0.10230296  0.05947995     0.06500
C238        C  0.03317885  0.07266300  0.07384718    -0.02000
Br239      Br  0.07509742  0.08057692  0.07309872    -0.01700
H240        H  0.05676605  0.01629750  0.10537011     0.10400
H241        H  0.94694503  0.10980470  0.03956281     0.08500
Br242      Br  0.42264570  0.03054942  0.05800032    -0.02200
C243        C  0.02035371  0.36186497  0.16501572    -0.08800
C244        C  0.99433296  0.39197065  0.14033009     0.07400
C245        C  0.96115133  0.37813023  0.10595131    -0.02600
C246        C  0.96021380  0.33843676  0.09281999    -0.07000
C247        C  0.99019019  0.31110425  0.11522139     0.06500
C248        C  0.01756845  0.32072463  0.15283160    -0.02000
Br249      Br  0.05488164  0.28101025  0.18705013    -0.01700
H250        H  0.04486140  0.37122269  0.19235039     0.10400
H251        H  0.93776744  0.33037814  0.06435069     0.08500
Br252      Br  0.91828128  0.41364785  0.07479202    -0.02200
C253        C  0.30381849  0.32791556  0.42409825    -0.08800
C254        C  0.32846583  0.36248997  0.43362340     0.07400
C255        C  0.35667285  0.35877839  0.42973991    -0.02600
C256        C  0.35084504  0.32969185  0.40463635    -0.07000
C257        C  0.31851127  0.30276922  0.38569213     0.06500
C258        C  0.29922845  0.29709474  0.40063715    -0.02000
Br259      Br  0.26678323  0.24923372  0.39097955    -0.01700
H260        H  0.28474368  0.32765081  0.43081090     0.10400
H261        H  0.37124757  0.32892284  0.39969418     0.08500
Br262      Br  0.40098141  0.39512715  0.45491952    -0.02200
C263        C  0.34162400  0.09790245  0.38295056    -0.08800
C264        C  0.31438706  0.09343656  0.38842810     0.07400
C265        C  0.28633604  0.12385595  0.37438320    -0.02600
C266        C  0.28562901  0.15743568  0.35480708    -0.07000
C267        C  0.31362419  0.16330298  0.35072673     0.06500
C268        C  0.34203270  0.13361959  0.36504345    -0.02000
Br269      Br  0.38280637  0.14267541  0.36291957    -0.01700
H270        H  0.36298991  0.07429438  0.39338962     0.10400
H271        H  0.26483464  0.18143813  0.34541369     0.08500
Br272      Br  0.24759670  0.12251605  0.38019383    -0.02200
O273        O  0.25872323  0.00039774  0.94506802    -0.57400
C274        C  0.20755024  0.47798878  0.83225732     0.75200
O275        O  0.31532514  0.01808112  0.89401754    -0.58600
C276        C  0.29121409  0.99823790  0.97614978     0.75200
C277        C  0.31262444  0.40318233  0.92841310     0.77500
Cd278      Cd  0.27717335  0.48039379  0.90836502     1.37500
O279        O  0.20828400  0.47215599  0.85975599    -0.57400
O280        O  0.28235935  0.40697304  0.92432952    -0.56300
C281        C  0.30828265  0.05351507  0.90049748     0.77500
O282        O  0.32599612  0.43582744  0.92359265    -0.58600
O283        O  0.23941963  0.48219575  0.83949112    -0.57100
O284        O  0.31868235  0.98972838  0.97670579    -0.57100
O285        O  0.29469972  0.05393720  0.91736637    -0.56200
C286        C  0.30813128  0.27579478  0.85298950     0.86900
C287        C  0.32238476  0.29294676  0.83238761    -0.53400
C288        C  0.31649886  0.26553633  0.80716504     0.09800
C289        C  0.29418614  0.22426980  0.80297698     0.20700
C290        C  0.26546841  0.26580572  0.82225216    -0.54100
C291        C  0.25704697  0.23977301  0.79462625     0.09900
C292        C  0.32686282  0.23390152  0.86795068    -0.53600
C293        C  0.31804701  0.20587606  0.84199224     0.10500
H294        H  0.33798840  0.32261350  0.83836680     0.15000
H295        H  0.29060323  0.19977119  0.78437078     0.00700
H296        H  0.24390084  0.27875943  0.82262241     0.15300
H297        H  0.34050328  0.22451237  0.89621638     0.15100
C298        C  0.21630869  0.23567159  0.75700283     0.30400
C299        C  0.14630836  0.23341828  0.68868543     0.30400
C300        C  0.18934654  0.27373878  0.74708089    -0.05800
C301        C  0.21560980  0.23539877  0.72348032    -0.06600
C302        C  0.19118960  0.19519654  0.74891851    -0.06500
C303        C  0.15359804  0.27177632  0.71273372    -0.05800
C304        C  0.18055458  0.23681599  0.68913120    -0.06600
C305        C  0.15559424  0.19399937  0.71413063    -0.06500
C306        C  0.13665305  0.31088770  0.70656322    -0.31900
N307        N  0.16059406  0.33682280  0.73608674     0.14600
C308        C  0.19305267  0.31504454  0.75996877    -0.31900
H309        H  0.21853061  0.32967061  0.78369037     0.16600
C310        C  0.18709014  0.24596964  0.66413695    -0.30800
N311        N  0.22509544  0.24655461  0.68240083     0.13400
C312        C  0.24177094  0.23685262  0.71755066    -0.30800
C313        C  0.13987285  0.15337886  0.71032806    -0.31100
N314        N  0.16432427  0.12970010  0.74122541     0.13900
H315        H  0.11311813  0.14153722  0.68600997     0.16500
C316        C  0.19586288  0.15489666  0.76445235    -0.31100
H317        H  0.22109983  0.14386112  0.78974784     0.16500
H318        H  0.27077345  0.23035894  0.73660119     0.16500
H319        H  0.10976391  0.32027186  0.68157562     0.16600
H320        H  0.16599933  0.25288364  0.63527229     0.16500
C321        C  0.01254588  0.00366640  0.62830859     0.86900
C322        C  0.99322145  0.02042962  0.64386635    -0.53400
C323        C  0.99799218  0.49455380  0.66921066     0.09800
C324        C  0.02581751  0.45850847  0.68083236     0.20700
C325        C  0.05474926  0.00265237  0.66165307    -0.54100
C326        C  0.06176171  0.48017842  0.68779656     0.09900
C327        C  0.99900358  0.45644426  0.61633789    -0.53600
C328        C  0.00552051  0.43313472  0.64470776     0.10500
H329        H  0.97582086  0.04815500  0.63347833     0.15000
H330        H  0.03176558  0.43934911  0.70405005     0.00700
H331        H  0.07672040  0.01789974  0.66202984     0.15300
H332        H  0.98635975  0.44325784  0.58947326     0.15100
C333        C  0.10232842  0.48146444  0.72456302     0.30400
C334        C  0.17070997  0.47995547  0.79323503     0.30400
C335        C  0.13042448  0.02115721  0.73758870    -0.05800
C336        C  0.10131743  0.48186184  0.75661844    -0.06600
C337        C  0.12701605  0.44238432  0.73311050    -0.06500
C338        C  0.16567977  0.02084517  0.77248202    -0.05800
C339        C  0.13557007  0.47914123  0.79171832    -0.06600
C340        C  0.16200404  0.44216477  0.76797803    -0.06500
C341        C  0.18251673  0.06129730  0.77741112    -0.31900
N342        N  0.15863453  0.08600170  0.74691994     0.14600
C343        C  0.12662943  0.06183753  0.72318596    -0.31900
H344        H  0.10136823  0.07394616  0.69814815     0.16600
C345        C  0.12918820  0.49272862  0.81572161    -0.30800
N346        N  0.09274612  0.50418651  0.79599643     0.13400
C347        C  0.07826793  0.50336144  0.76055659    -0.30800
C348        C  0.17800695  0.40328043  0.77221949    -0.31100
N349        N  0.15426048  0.37950616  0.74102915     0.13900
H350        H  0.20439258  0.39262471  0.79707520     0.16500
C351        C  0.12278584  0.40310752  0.71707222    -0.31100
H352        H  0.09805197  0.39228505  0.69045421     0.16500
H353        H  0.05619905  0.52355021  0.73971673     0.16500
H354        H  0.20943811  0.07219558  0.80213505     0.16600
H355        H  0.14999145  0.49784975  0.84494423     0.16500
O356        O  0.05780208  0.25782578  0.54184359    -0.57400
C357        C  0.10898835  0.23253724  0.64988565     0.75200
O358        O  0.00860662  0.24071256  0.60829470    -0.58600
C359        C  0.02652077  0.25211686  0.51003879     0.75200
C360        C  0.01293416  0.14424899  0.55980465     0.77500
Cd361      Cd  0.03548211  0.23058531  0.57640049     1.37500
O362        O  0.09892888  0.26295536  0.62752785    -0.57400
O363        O  0.04506119  0.15792004  0.57080039    -0.56300
C364        C  0.99866024  0.27813836  0.59734316     0.77500
O365        O  0.98983243  0.17168289  0.55385373    -0.58600
O366        O  0.08641366  0.20091598  0.63752692    -0.57100
O367        O  0.99882098  0.23974694  0.50877615    -0.57100
O368        O  0.00141071  0.29170553  0.57327102    -0.56200
O369        O  0.32789517  0.99485089  0.54147529    -0.57400
C370        C  0.36761986  0.51714770  0.65151667     0.75200
O371        O  0.26505580  0.03902887  0.58542491    -0.58600
C372        C  0.29689336  0.00343238  0.51044218     0.75200
C373        C  0.25826625  0.43661543  0.56093963     0.77500
Cd374      Cd  0.30202842  0.00427882  0.57410989     1.37500
O375        O  0.35949711  0.54538967  0.62813443    -0.57400
O376        O  0.28966540  0.43550168  0.56673327    -0.56300
C377        C  0.27468093  0.07480046  0.58043832     0.77500
O378        O  0.24641249  0.47251766  0.56039106    -0.58600
O379        O  0.34693652  0.48389857  0.63877606    -0.57100
O380        O  0.26990734  0.01465663  0.50974506    -0.57100
O381        O  0.29040042  0.07602517  0.56553252    -0.56200
C382        C  0.06750647  0.07312575  0.84397679     0.86900
C383        C  0.08790439  0.05900315  0.82960837    -0.53400
C384        C  0.07511222  0.52242644  0.80994169     0.09800
C385        C  0.04281879  0.50019467  0.80886202     0.20700
C386        C  0.52679845  0.07224670  0.81111741    -0.54100
C387        C  0.51253592  0.53375905  0.79565049     0.09900
C388        C  0.07139869  0.03686879  0.86839226    -0.53600
C389        C  0.05894301  0.49851136  0.84904988     0.10500
H390        H  0.11073854  0.07724910  0.83307487     0.15000
H391        H  0.03338264  0.46858356  0.79554982     0.00700
H392        H  0.51061618  0.10023894  0.80106842     0.15300
H393        H  0.08161262  0.53860390  0.89457701     0.15100
C394        C  0.47079070  0.52553310  0.76045328     0.30400
C395        C  0.40260941  0.52121694  0.69136261     0.30400
C396        C  0.44205039  0.06152553  0.74785194    -0.05800
C397        C  0.47164802  0.52480672  0.72799478    -0.06600
C398        C  0.44681740  0.48380398  0.75275035    -0.06500
C399        C  0.40782756  0.05940273  0.71227993    -0.05800
C400        C  0.43745345  0.52555841  0.69316844    -0.06600
C401        C  0.41187988  0.48212251  0.71730749    -0.06500
C402        C  0.38912703  0.09774420  0.70593590    -0.31900
N403        N  0.40987165  0.12230983  0.73713943     0.14600
C404        C  0.44078409  0.09921051  0.76290114    -0.31900
H405        H  0.46028399  0.10881150  0.79124035     0.16600
C406        C  0.44384918  0.51627294  0.66844582    -0.30800
N407        N  0.48032398  0.50530751  0.68755283     0.13400
C408        C  0.49508900  0.50506307  0.72322410    -0.30800
C409        C  0.39611090  0.44165540  0.71312819    -0.31100
N410        N  0.41942746  0.41796343  0.74425614     0.13900
H411        H  0.36986028  0.42992800  0.68825718     0.16500
C412        C  0.45078859  0.44348196  0.76860131    -0.31100
H413        H  0.47534722  0.43334452  0.79528987     0.16500
H414        H  0.01603987  0.48352110  0.74007224     0.16500
H415        H  0.36292242  0.10711604  0.68018198     0.16600
H416        H  0.42285706  0.51392346  0.63892524     0.16500
C417        C  0.25416137  0.29485290  0.62771780     0.86900
C418        C  0.23343603  0.29228352  0.64436383    -0.53400
C419        C  0.24577086  0.26042853  0.66943555     0.09800
C420        C  0.27997099  0.23651152  0.67784036     0.20700
C421        C  0.29662146  0.30005360  0.66045313    -0.54100
C422        C  0.31105754  0.27018718  0.68724717     0.09900
C423        C  0.24877781  0.25051544  0.61343050    -0.53600
C424        C  0.26362173  0.22046163  0.63972112     0.10500
H425        H  0.20910755  0.31047632  0.63528000     0.15000
H426        H  0.29046751  0.21084760  0.69846065     0.00700
H427        H  0.31350097  0.32447149  0.66025070     0.15300
H428        H  0.23664364  0.24340999  0.58521534     0.15100
C429        C  0.35253259  0.27091551  0.72374542     0.30400
C430        C  0.42017252  0.26766376  0.79361569     0.30400
C431        C  0.38133491  0.30931955  0.73479496    -0.05800
C432        C  0.35104522  0.27260309  0.75546012    -0.06600
C433        C  0.37674039  0.23000986  0.73319135    -0.06500
C434        C  0.41592972  0.30754099  0.77051381    -0.05800
C435        C  0.38444955  0.26844813  0.79033751    -0.06600
C436        C  0.41136467  0.22905822  0.76867465    -0.06500
C437        C  0.43421760  0.34776429  0.77799381    -0.31900
N438        N  0.41226596  0.37402056  0.74831871     0.14600
C439        C  0.37993265  0.35106695  0.72277942    -0.31900
H440        H  0.35605781  0.36535140  0.69831438     0.16600
C441        C  0.37551310  0.26562318  0.81383007    -0.30800
N442        N  0.33769770  0.27038726  0.79374644     0.13400
C443        C  0.32348345  0.27858723  0.75881720    -0.30800
C444        C  0.42677936  0.18930100  0.77334829    -0.31100
N445        N  0.40313679  0.16512048  0.74226776     0.13900
H446        H  0.45308276  0.17865982  0.79827275     0.16500
C447        C  0.37242409  0.18969986  0.71792033    -0.33100
H448        H  0.34799382  0.17851595  0.69173236     0.16500
H449        H  0.29564063  0.29002865  0.73767575     0.16500
H450        H  0.46057295  0.35751233  0.80389103     0.16600
H451        H  0.39479426  0.25987617  0.84308550     0.16500
O452        O  0.49426190  0.25245825  0.94501722    -0.57400
C453        C  0.45430567  0.26755901  0.83404387     0.75200
O454        O  0.56854429  0.32420219  0.92830145    -0.58600
C455        C  0.02353972  0.26039072  0.97699690     0.75200
C456        C  0.56667106  0.22050990  0.90662807     0.77500
Cd457      Cd  0.52053605  0.27263914  0.91188509     1.37500
O458        O  0.46215398  0.29922439  0.85416937    -0.57400
O459        O  0.55158273  0.20643739  0.92065949    -0.56300
C460        C  0.54621057  0.35471370  0.91407319     0.77500
O461        O  0.07251636  0.25223927  0.91504059    -0.58600
O462        O  0.47478617  0.23572449  0.85044455    -0.57100
O463        O  0.05181788  0.26011780  0.97755469    -0.57100
O464        O  0.51329212  0.34803761  0.90433107    -0.56200
C465        C  0.10332859  0.11886076  0.90148304    -0.08800
C466        C  0.08165995  0.11608901  0.86300141     0.07400
C467        C  0.56916167  0.15733365  0.84226535    -0.02600
C468        C  0.56832743  0.19324450  0.85875274    -0.07000
C469        C  0.58260212  0.19194141  0.89545175     0.06500
C470        C  0.10076697  0.15398691  0.91726669    -0.02000
Br471      Br  0.12458490  0.15338675  0.96863980    -0.01700
H472        H  0.11987143  0.09275992  0.91920130     0.10400
H473        H  0.55334508  0.22067711  0.84196115     0.08500
Br474      Br  0.54959599  0.16203230  0.79204614    -0.02200
C475        C  0.07723107  0.42639287  0.87229662    -0.08800
C476        C  0.05629819  0.46150002  0.86644425     0.07400
C477        C  0.53590476  0.46536586  0.88044632    -0.02600
C478        C  0.53397733  0.42987461  0.89734283    -0.07000
C479        C  0.55618257  0.39475046  0.90536843     0.06500
C480        C  0.07686561  0.39093675  0.89021424    -0.02000
Br481      Br  0.10652415  0.34448746  0.89579704    -0.01700
H482        H  0.09406334  0.42670064  0.86298180     0.10400
H483        H  0.51392588  0.42907136  0.90285827     0.08500
Br484      Br  0.50351452  0.51160559  0.86900443    -0.02200
C485        C  0.25591768  0.36043469  0.55969180    -0.08800
C486        C  0.23949026  0.39716823  0.55926378     0.07400
C487        C  0.21660239  0.39527335  0.57020340    -0.02600
C488        C  0.21831039  0.35987765  0.58953576    -0.07000
C489        C  0.24292115  0.32693888  0.59820987     0.06500
C490        C  0.26025561  0.32663924  0.58106425    -0.02000
Br491      Br  0.29639111  0.28635776  0.59021171    -0.01700
H492        H  0.27161535  0.36085303  0.54914070     0.10400
H493        H  0.20286411  0.36057187  0.60014104     0.08500
Br494      Br  0.18554909  0.44103771  0.56279378    -0.02200
C495        C  0.29519396  0.18113334  0.62293950    -0.08800
C496        C  0.27081314  0.18012344  0.63178905     0.07400
C497        C  0.24704284  0.14506430  0.62316093    -0.02600
C498        C  0.24772546  0.11109014  0.60513789    -0.07000
C499        C  0.27124436  0.11270656  0.59494164     0.06500
C500        C  0.29542504  0.14825043  0.60419955    -0.02000
Br501      Br  0.33008535  0.15534042  0.59331333    -0.01700
H502        H  0.31331633  0.20871703  0.62966982     0.10400
H503        H  0.22954210  0.08364511  0.59871354     0.08500
Br504      Br  0.21175070  0.14390634  0.63314245    -0.02200
C505        C  0.03294373  0.03350204  0.59185406    -0.08800
C506        C  0.00433310  0.02791802  0.59545152     0.07400
C507        C  0.97048399  0.04986447  0.57050014    -0.02600
C508        C  0.97125553  0.08602714  0.55323607    -0.07000
C509        C  0.00473433  0.09863637  0.55909768     0.06500
C510        C  0.03358843  0.06896991  0.57402093    -0.02000
Br511      Br  0.07652864  0.07691776  0.57487673    -0.01700
H512        H  0.05650902  0.01240212  0.60542901     0.10400
H513        H  0.94696027  0.10619963  0.53823839     0.08500
Br514      Br  0.42335170  0.03601806  0.55858444    -0.02200
C515        C  0.01879845  0.35778204  0.66414109    -0.08800
C516        C  0.99317417  0.38801083  0.63915287     0.07400
C517        C  0.95999192  0.37407719  0.60478351    -0.02600
C518        C  0.95889238  0.33411737  0.59195191    -0.07000
C519        C  0.98877306  0.30673375  0.61451468     0.06500
C520        C  0.01585909  0.31641211  0.65219328    -0.02000
Br521      Br  0.05260108  0.27650437  0.68691507    -0.01700
H522        H  0.04315154  0.36714849  0.69154695     0.10400
H523        H  0.93652348  0.32597495  0.56348189     0.08500
Br524      Br  0.91742085  0.40979526  0.57301479    -0.02200
C525        C  0.30390826  0.32682581  0.92371530    -0.08800
C526        C  0.32804786  0.36173003  0.93261660     0.07400
C527        C  0.35581718  0.35849943  0.92809197    -0.02600
C528        C  0.34989511  0.32923484  0.90309056    -0.07000
C529        C  0.31762467  0.30218327  0.88441176     0.06500
C530        C  0.29873224  0.29634155  0.89974300    -0.02000
Br531      Br  0.26571921  0.24894581  0.88969173    -0.01700
H532        H  0.28522517  0.32632046  0.93090210     0.10400
H533        H  0.37005228  0.32868983  0.89783170     0.08500
Br534      Br  0.39880563  0.39673217  0.95109919    -0.02200
C535        C  0.33953277  0.09676437  0.88100681    -0.08800
C536        C  0.31155577  0.09219200  0.88547353     0.07400
C537        C  0.28378676  0.12297022  0.87147124    -0.02600
C538        C  0.28420160  0.15708993  0.85302044    -0.07000
C539        C  0.31272176  0.16282348  0.84966756     0.06500
C540        C  0.34092533  0.13286870  0.86409501    -0.02000
Br541      Br  0.38295071  0.14218852  0.86391026    -0.01700
H542        H  0.36086691  0.07305748  0.89169647     0.10400
H543        H  0.26362357  0.18134621  0.84366990     0.08500
Br544      Br  0.24411384  0.12168099  0.87600036    -0.02200
O545        O  0.25755328  0.50354966  0.44451606    -0.57400
C546        C  0.21022207  0.98149991  0.33535268     0.75200
O547        O  0.31664508  0.51911351  0.39618555    -0.58600
C548        C  0.28988313  0.50022011  0.47565439     0.75200
C549        C  0.31437985  0.90399951  0.43021180     0.77500
Cd550      Cd  0.28102417  0.98266616  0.41108976     1.37500
O551        O  0.21162711  0.97921951  0.36341162    -0.57400
O552        O  0.28324312  0.90857905  0.42425093    -0.56300
C553        C  0.30971605  0.55458609  0.40270093     0.77500
O554        O  0.32977839  0.93657441  0.42792871    -0.58600
O555        O  0.24185980  0.98269219  0.34187943    -0.57100
O556        O  0.31701012  0.49006044  0.47617652    -0.57100
O557        O  0.29545996  0.55510623  0.41895999    -0.56200
C558        C  0.30943742  0.77570627  0.35488841     0.86900
C559        C  0.32369810  0.79327716  0.33439127    -0.53400
C560        C  0.31753867  0.76630742  0.30877301     0.09800
C561        C  0.29523149  0.72494231  0.30439250     0.20700
C562        C  0.26676158  0.76607671  0.32412183    -0.54100
C563        C  0.25820507  0.74047787  0.29626916     0.09900
C564        C  0.32804021  0.73374459  0.36948970    -0.53600
C565        C  0.31919389  0.70610909  0.34330988     0.10500
H566        H  0.33941136  0.82293653  0.34068578     0.15000
H567        H  0.29159288  0.70051738  0.28574598     0.00700
H568        H  0.24520819  0.77931039  0.32439565     0.15300
H569        H  0.34168931  0.72403491  0.39768988     0.15100
C570        C  0.21751702  0.73753167  0.25862826     0.30400
C571        C  0.14746535  0.73681517  0.19048907     0.30400
C572        C  0.19150854  0.77660911  0.24898896    -0.05800
C573        C  0.21668478  0.73654005  0.22509158    -0.06600
C574        C  0.19154792  0.69791310  0.25034842    -0.06500
C575        C  0.15574339  0.77535000  0.21469865    -0.05800
C576        C  0.18158594  0.73864018  0.19084332    -0.06600
C577        C  0.15586525  0.69747552  0.21560731    -0.06500
C578        C  0.13936363  0.81469558  0.20887748    -0.31900
N579        N  0.16363749  0.84025159  0.23858102     0.14600
C580        C  0.19580311  0.81787807  0.26233555    -0.31900
H581        H  0.22137828  0.83188370  0.28643982     0.16600
C582        C  0.18791070  0.74660410  0.16565104    -0.30800
N583        N  0.22578034  0.74600464  0.18371336     0.13400
C584        C  0.24260960  0.73653262  0.21890389    -0.30800
C585        C  0.14011652  0.65663667  0.21077207    -0.31100
N586        N  0.16457996  0.63222812  0.24108256     0.13900
H587        H  0.11351774  0.64509307  0.18608084     0.16500
C588        C  0.19626797  0.65696043  0.26470864    -0.31100
H589        H  0.22174748  0.64504902  0.28920186     0.16500
H590        H  0.27157155  0.72971812  0.23773390     0.16500
H591        H  0.11252246  0.82442494  0.18402345     0.16600
H592        H  0.16685027  0.75370480  0.13682223     0.16500
C593        C  0.01241813  0.50681684  0.12751696     0.86900
C594        C  0.99366991  0.52269705  0.14386789    -0.53400
C595        C  0.00001982  0.99780821  0.17212137     0.09800
C596        C  0.02723980  0.96127765  0.18332504     0.20700
C597        C  0.05473746  0.50540550  0.16052069    -0.54100
C598        C  0.06367732  0.98221069  0.19087803     0.09900
C599        C  0.00052894  0.96033806  0.11882569    -0.53600
C600        C  0.00653127  0.93668937  0.14677877     0.10500
H601        H  0.97664957  0.55065857  0.13445532     0.15000
H602        H  0.03266126  0.94171819  0.20613663     0.00700
H603        H  0.07651883  0.52106683  0.16080810     0.15300
H604        H  0.98774991  0.94761701  0.09178195     0.15100
C605        C  0.10423799  0.98334086  0.22788765     0.30400
C606        C  0.17292683  0.98264174  0.29648808     0.30400
C607        C  0.13051109  0.52360704  0.23645724    -0.05800
C608        C  0.10339227  0.98184942  0.26003080    -0.06600
C609        C  0.12981179  0.94539797  0.23603562    -0.06500
C610        C  0.16574228  0.52321385  0.27139451    -0.05800
C611        C  0.13779967  0.97964528  0.29513226    -0.06600
C612        C  0.16493074  0.94543008  0.27089145    -0.06500
C613        C  0.18268662  0.56349676  0.27644867    -0.31900
N614        N  0.15885308  0.58834326  0.24610795     0.14600
C615        C  0.12678955  0.56435773  0.22219632    -0.31900
H616        H  0.10159702  0.57664914  0.19720188     0.16600
C617        C  0.13089636  0.99147364  0.31917977    -0.30800
N618        N  0.09410947  0.00172081  0.29945602     0.13400
C619        C  0.07988700  0.00177453  0.26410726    -0.30800
C620        C  0.18122154  0.90671599  0.27495561    -0.31100
N621        N  0.15750649  0.88295430  0.24372359     0.13900
H622        H  0.20762656  0.89601871  0.29977643     0.16500
C623        C  0.12581687  0.90630648  0.21995362    -0.31100
H624        H  0.10090701  0.89525482  0.19354205     0.16500
H625        H  0.05819480  0.02255912  0.24367471     0.16500
H626        H  0.20969349  0.57417509  0.30114487     0.16600
H627        H  0.15152554  0.99660302  0.34841466     0.16500
O628        O  0.06108255  0.75479496  0.04235529    -0.57400
C629        C  0.11030367  0.73682767  0.15174575     0.75200
O630        O  0.00414370  0.74487564  0.10305523    -0.58600
C631        C  0.02889015  0.75598097  0.01096269     0.75200
C632        C  0.01490454  0.64981045  0.06182079     0.77500
Cd633      Cd  0.03795466  0.73587936  0.07771888     1.37500
O634        O  0.10189209  0.76636720  0.12909014    -0.57400
O635        O  0.04733834  0.66276875  0.07320395    -0.56300
C636        C  0.00136503  0.78437176  0.09808742     0.77500
O637        O  0.99191341  0.67780036  0.05519492    -0.58600
O638        O  0.08630141  0.70671716  0.13968024    -0.57100
O639        O  0.00058723  0.75126780  0.01039307    -0.57100
O640        O  0.01155377  0.80045369  0.08021775    -0.56200
O641        O  0.32391320  0.49276490  0.03900169    -0.57400
C642        C  0.36678572  0.01580734  0.15013743     0.75200
O643        O  0.25884351  0.54180035  0.07874013    -0.58600
C644        C  0.29384478  0.50379658  0.00815233     0.75200
C645        C  0.25878368  0.93389258  0.06117128     0.77500
Cd646      Cd  0.29916188  0.50692771  0.07212997     1.37500
O647        O  0.35956913  0.04278964  0.12622726    -0.57400
O648        O  0.29189132  0.93307920  0.07064568    -0.56300
C649        C  0.26934831  0.57750989  0.07470241     0.77500
O650        O  0.24448008  0.96968158  0.05596210    -0.58600
O651        O  0.34490848  0.98353737  0.13822258    -0.57100
O652        O  0.26804764  0.51877061  0.00776941    -0.57100
O653        O  0.28699365  0.57865599  0.06171702    -0.56200
C654        C  0.06864674  0.57188761  0.34499140     0.86900
C655        C  0.08865694  0.55931034  0.32979791    -0.53400
C656        C  0.07628845  0.02012350  0.31316639     0.09800
C657        C  0.04359270  0.99829272  0.31166539     0.20700
C658        C  0.52622305  0.57060243  0.31019299    -0.54100
C659        C  0.51192115  0.03129201  0.29409475     0.09900
C660        C  0.07312014  0.53447487  0.36872799    -0.53600
C661        C  0.05982072  0.99648649  0.35193185     0.10500
H662        H  0.11138447  0.57808665  0.33349694     0.15000
H663        H  0.03397414  0.96677841  0.29816179     0.00700
H664        H  0.51059462  0.59906568  0.30009030     0.15300
H665        H  0.08188467  0.03673616  0.39725900     0.15100
C666        C  0.47011688  0.02431785  0.25866550     0.30400
C667        C  0.40189964  0.02003596  0.18972722     0.30400
C668        C  0.44117228  0.56140913  0.24735232    -0.05800
C669        C  0.47094776  0.02274653  0.22619645    -0.06600
C670        C  0.44577849  0.98309589  0.25122563    -0.06500
C671        C  0.40679409  0.55985776  0.21185227    -0.05800
C672        C  0.43676469  0.02335647  0.19140059    -0.06600
C673        C  0.41080111  0.98138553  0.21590817    -0.06500
C674        C  0.38816050  0.59786094  0.20639846    -0.31900
N675        N  0.40922694  0.62183122  0.23792504     0.14600
C676        C  0.44037241  0.59868787  0.26314210    -0.31900
H677        H  0.46052282  0.60810967  0.29148597     0.16600
C678        C  0.44326531  0.01406519  0.16670055    -0.30800
N679        N  0.47983521  0.00319687  0.18588128     0.13400
C680        C  0.49451113  0.00309843  0.22153415    -0.30800
C681        C  0.39509733  0.94084736  0.21186342    -0.31100
N682        N  0.41859124  0.91724273  0.24301379     0.13900
H683        H  0.36891187  0.92890977  0.18704395     0.16500
C684        C  0.44996053  0.94279386  0.26712221    -0.31100
H685        H  0.47476322  0.93258735  0.29360821     0.16500
H686        H  0.01700213  0.98415031  0.24236551     0.16500
H687        H  0.36176775  0.60749195  0.18095797     0.16600
H688        H  0.42234219  0.01187506  0.13716279     0.16500
C689        C  0.25407705  0.79259636  0.12821903     0.86900
C690        C  0.23370422  0.79077743  0.14515255    -0.53400
C691        C  0.24628509  0.75936940  0.17060201     0.09800
C692        C  0.28034267  0.73517282  0.17912332     0.20700
C693        C  0.29655346  0.79809707  0.16070327    -0.54100
C694        C  0.31111226  0.76887217  0.18793990     0.09900
C695        C  0.24854174  0.74798997  0.11443919    -0.53600
C696        C  0.26370659  0.71834035  0.14114005     0.10500
H697        H  0.20937719  0.80901471  0.13599544     0.15000
H698        H  0.29102069  0.70991824  0.20010930     0.00700
H699        H  0.31332513  0.82233969  0.16014898     0.15300
H700        H  0.23613993  0.74040013  0.08622934     0.15100
C701        C  0.35240715  0.77037630  0.22437983     0.30400
C702        C  0.42017124  0.76790058  0.29401633     0.30400
C703        C  0.38119017  0.80848724  0.23461875    -0.05800
C704        C  0.35112033  0.77326846  0.25620229    -0.06600
C705        C  0.37637984  0.72932573  0.23424023    -0.06500
C706        C  0.41591072  0.80712887  0.27030212    -0.05800
C707        C  0.38468870  0.76962283  0.29102950    -0.06600
C708        C  0.41104028  0.72861095  0.26958919    -0.06500
C709        C  0.43392595  0.84742617  0.27728158    -0.31900
N710        N  0.41175230  0.87328547  0.24735171     0.14600
C711        C  0.37948048  0.85007017  0.22213657    -0.31900
H712        H  0.35539589  0.86413874  0.19767935     0.16600
C713        C  0.37612844  0.76729345  0.31480341    -0.30800
N714        N  0.33832054  0.77171608  0.29494327     0.13400
C715        C  0.32369347  0.77923936  0.25978473    -0.30800
C716        C  0.42636912  0.68870631  0.27442227    -0.31100
N717        N  0.40254175  0.66441483  0.24345638     0.13900
H718        H  0.45282917  0.67814109  0.29923738     0.16500
C719        C  0.37182957  0.68893356  0.21913848    -0.33100
H720        H  0.34737755  0.67775530  0.19301945     0.16500
H721        H  0.29563784  0.79009162  0.23860924     0.16500
H722        H  0.46018356  0.85757755  0.30308715     0.16600
H723        H  0.39562704  0.76171890  0.34407721     0.16500
O724        O  0.49555573  0.75285463  0.44603889    -0.57400
C725        C  0.45436541  0.76767182  0.33432632     0.75200
O726        O  0.56961165  0.81989356  0.42593424    -0.58600
C727        C  0.02308431  0.75931632  0.47753045     0.75200
C728        C  0.56459201  0.71726377  0.40483266     0.77500
Cd729      Cd  0.52089003  0.77083476  0.41182864     1.37500
O730        O  0.46351724  0.79986360  0.35435324    -0.57400
O731        O  0.54988024  0.70392464  0.41943159    -0.56300
C732        C  0.54905632  0.85168980  0.41590816     0.77500
O733        O  0.06469536  0.75436163  0.40313340    -0.58600
O734        O  0.47339452  0.73497541  0.35079497    -0.57100
O735        O  0.05168441  0.76094921  0.47855110    -0.57100
O736        O  0.51749921  0.84596660  0.40944107    -0.56200
C737        C  0.10310223  0.61665886  0.40312527    -0.08800
C738        C  0.08241123  0.61450667  0.36472071     0.07400
C739        C  0.57029116  0.65406541  0.34228472    -0.02600
C740        C  0.56818865  0.68979900  0.35808290    -0.07000
C741        C  0.58062911  0.68814687  0.39419266     0.06500
C742        C  0.10100221  0.65200257  0.41903117    -0.02000
Br743      Br  0.12459780  0.65122253  0.47038372    -0.01700
H744        H  0.11902330  0.59031548  0.42080675     0.10400
H745        H  0.55385083  0.71737119  0.34117581     0.08500
Br746      Br  0.55374753  0.65870865  0.29306895    -0.02200
C747        C  0.08263012  0.92693494  0.38114084    -0.08800
C748        C  0.05747946  0.95960577  0.36972881     0.07400
C749        C  0.53280098  0.95898395  0.37586821    -0.02600
C750        C  0.53288504  0.92494104  0.39510312    -0.07000
C751        C  0.55855489  0.89224575  0.40736485     0.06500
C752        C  0.08251143  0.89231656  0.40008569    -0.02000
Br753      Br  0.11680687  0.84809603  0.41204864    -0.01700
H754        H  0.10222405  0.92829383  0.37504399     0.10400
H755        H  0.51121092  0.92290699  0.39847763     0.08500
Br756      Br  0.49506773  0.00092755  0.35788953    -0.02200
C757        C  0.25669480  0.85766122  0.06066946    -0.08800
C758        C  0.24035127  0.89454070  0.06015340     0.07400
C759        C  0.21756716  0.89306780  0.07122312    -0.02600
C760        C  0.21858630  0.85752493  0.09001067    -0.07000
C761        C  0.24271638  0.82417926  0.09841748     0.06500
C762        C  0.26019398  0.82357713  0.08143385    -0.02000
Br763      Br  0.29575558  0.78252362  0.09043368    -0.01700
H764        H  0.27269102  0.85802964  0.05043383     0.10400
H765        H  0.20331010  0.85860336  0.10077482     0.08500
Br766      Br  0.18870488  0.94003472  0.06613860    -0.02200
C767        C  0.29467990  0.67957063  0.12373006    -0.08800
C768        C  0.27087608  0.67790428  0.13327942     0.07400
C769        C  0.24549984  0.64388801  0.12247326    -0.02600
C770        C  0.24334057  0.61230822  0.10086758    -0.07000
C771        C  0.26605856  0.61500565  0.08973546     0.06500
C772        C  0.29178240  0.64947922  0.10113313    -0.02000
Br773      Br  0.32419419  0.65899887  0.08777372    -0.01700
H774        H  0.31389515  0.70647052  0.13194592     0.10400
H775        H  0.22417893  0.58545547  0.09309303     0.08500
Br776      Br  0.21277310  0.64055602  0.13556504    -0.02200
C777        C  0.03216950  0.53737314  0.09087556    -0.08800
C778        C  0.00396963  0.53216516  0.09504777     0.07400
C779        C  0.97096068  0.55598000  0.07173470    -0.02600
C780        C  0.97259976  0.59281571  0.05570444    -0.07000
C781        C  0.00600582  0.60444520  0.06108976     0.06500
C782        C  0.03381500  0.57373445  0.07450759    -0.02000
Br783      Br  0.07669309  0.58100436  0.07520710    -0.01700
H784        H  0.05497611  0.51532247  0.10333816     0.10400
H785        H  0.94901672  0.61398577  0.04186374     0.08500
Br786      Br  0.42300991  0.53862705  0.05933316    -0.02200
C787        C  0.01967127  0.86145316  0.16535007    -0.08800
C788        C  0.99394134  0.89173588  0.14065827     0.07400
C789        C  0.96105737  0.87813824  0.10592592    -0.02600
C790        C  0.96056268  0.83880881  0.09259105    -0.07000
C791        C  0.99058035  0.81161698  0.11508675     0.06500
C792        C  0.01722992  0.82062882  0.15286274    -0.02000
Br793      Br  0.05393841  0.78042493  0.18698156    -0.01700
H794        H  0.04385830  0.87052238  0.19293013     0.10400
H795        H  0.93859252  0.83109030  0.06393131     0.08500
Br796      Br  0.91821217  0.91356621  0.07445346    -0.02200
C797        C  0.30385356  0.82765208  0.42420935    -0.08800
C798        C  0.32870990  0.86204550  0.43367692     0.07400
C799        C  0.35707780  0.85793430  0.43003087    -0.02600
C800        C  0.35154590  0.82812563  0.40558508    -0.07000
C801        C  0.31894185  0.80168765  0.38642320     0.06500
C802        C  0.29928847  0.79650701  0.40098648    -0.02000
Br803      Br  0.26639336  0.74892793  0.39098609    -0.01700
H804        H  0.28458219  0.82780863  0.43067238     0.10400
H805        H  0.37205808  0.82692221  0.40080172     0.08500
Br806      Br  0.40050896  0.89552207  0.45329945    -0.02200
C807        C  0.34226997  0.59836651  0.38483060    -0.08800
C808        C  0.31317789  0.59313032  0.38768366     0.07400
C809        C  0.28417419  0.62267113  0.37152087    -0.02600
C810        C  0.28474358  0.65657628  0.35297295    -0.07000
C811        C  0.31412133  0.66289352  0.35091297     0.06500
C812        C  0.34339855  0.63397452  0.36726695    -0.02000
Br813      Br  0.38638554  0.64420476  0.36872285    -0.01700
H814        H  0.36447468  0.57549228  0.39706358     0.10400
H815        H  0.26361663  0.68038865  0.34272438     0.08500
Br816      Br  0.24234145  0.61955999  0.37289050    -0.02200
O817        O  0.25647150  0.50405516  0.94296528    -0.57400
C818        C  0.20978730  0.97943835  0.83537434     0.75200
O819        O  0.31433787  0.51709227  0.89457685    -0.58600
C820        C  0.28820185  0.49780788  0.97407296     0.75200
C821        C  0.31521139  0.90379500  0.93134909     0.77500
Cd822      Cd  0.28057800  0.98164095  0.91080107     1.37500
O823        O  0.21124328  0.97892950  0.86349265    -0.57400
O824        O  0.28212913  0.90751413  0.92131816    -0.56300
C825        C  0.30660526  0.55242055  0.90047761     0.77500
O826        O  0.33220310  0.93706319  0.93244178    -0.58600
O827        O  0.24134871  0.97853026  0.84177518    -0.57100
O828        O  0.31452261  0.48459279  0.97444545    -0.57100
O829        O  0.29169025  0.55269503  0.91611577    -0.56200
C830        C  0.30917157  0.77544081  0.85581163     0.86900
C831        C  0.32308449  0.79284326  0.83495272    -0.53400
C832        C  0.31733182  0.76550874  0.80976579     0.09800
C833        C  0.29542100  0.72403401  0.80583489     0.20700
C834        C  0.26655459  0.76506153  0.82522554    -0.54100
C835        C  0.25823442  0.73916240  0.79754824     0.09900
C836        C  0.32813704  0.73363662  0.87082868    -0.53600
C837        C  0.31945937  0.70567957  0.84488533     0.10500
H838        H  0.33838435  0.82270885  0.84075556     0.15000
H839        H  0.29194271  0.69947545  0.78734380     0.00700
H840        H  0.24491744  0.77783631  0.82556846     0.15300
H841        H  0.34170368  0.72420275  0.89906675     0.15100
C842        C  0.21768329  0.73568803  0.75971799     0.30400
C843        C  0.14807932  0.73493810  0.69119252     0.30400
C844        C  0.19117867  0.77424613  0.75005576    -0.05800
C845        C  0.21738462  0.73571007  0.72640702    -0.06600
C846        C  0.19191580  0.69543533  0.75080727    -0.06500
C847        C  0.15564894  0.77294969  0.71554978    -0.05800
C848        C  0.18246518  0.73778199  0.69199229    -0.06600
C849        C  0.15648754  0.69513397  0.71586177    -0.06500
C850        C  0.13897297  0.81212117  0.70961277    -0.31900
N851        N  0.16278940  0.83758578  0.73948005     0.14600
C852        C  0.19502200  0.81540684  0.76340327    -0.31900
H853        H  0.22040380  0.82963826  0.78751772     0.16600
C854        C  0.18909454  0.74620826  0.66706396    -0.30800
N855        N  0.22702141  0.74595939  0.68537256     0.13400
C856        C  0.24357691  0.73615367  0.72049289    -0.30800
C857        C  0.14048656  0.65434022  0.71055867    -0.31100
N858        N  0.16450139  0.62962256  0.74074953     0.13900
H859        H  0.11395752  0.64303701  0.68567040     0.16500
C860        C  0.19618454  0.65429265  0.76492412    -0.31100
H861        H  0.22134201  0.64237476  0.78983380     0.16500
H862        H  0.27245805  0.72894121  0.73941250     0.16500
H863        H  0.11232419  0.82187193  0.68454106     0.16600
H864        H  0.16814469  0.75311875  0.63818041     0.16500
C865        C  0.01064107  0.50273868  0.62520561     0.86900
C866        C  0.99164914  0.51853346  0.64132612    -0.53400
C867        C  0.99912136  0.99688429  0.67184744     0.09800
C868        C  0.02666390  0.96033849  0.68391289     0.20700
C869        C  0.05295460  0.50239460  0.65826513    -0.54100
C870        C  0.06307103  0.98085975  0.69114826     0.09900
C871        C  0.00030212  0.95756112  0.61958111    -0.53600
C872        C  0.00633431  0.93478043  0.64796310     0.10500
H873        H  0.97456264  0.54643640  0.63182613     0.15000
H874        H  0.03210327  0.94143423  0.70702589     0.00700
H875        H  0.07448279  0.51856877  0.65839163     0.15300
H876        H  0.98769628  0.94407047  0.59281969     0.15100
C877        C  0.10376358  0.98164631  0.72796223     0.30400
C878        C  0.17248351  0.98084802  0.79655219     0.30400
C879        C  0.12936216  0.52079547  0.73442006    -0.05800
C880        C  0.10303126  0.98164410  0.76013317    -0.06600
C881        C  0.12875265  0.94282836  0.73653972    -0.06500
C882        C  0.16443718  0.52002929  0.76951300    -0.05800
C883        C  0.13734045  0.97948827  0.79521130    -0.06600
C884        C  0.16385912  0.94286310  0.77139928    -0.06500
C885        C  0.18166837  0.56029246  0.77520320    -0.31900
N886        N  0.15828548  0.58558617  0.74508768     0.14600
C887        C  0.12612123  0.56181482  0.72065188    -0.31900
H888        H  0.10110113  0.57435417  0.69563478     0.16600
C889        C  0.13032398  0.99159910  0.81912620    -0.30800
N890        N  0.09348392  0.00193500  0.79920070     0.13400
C891        C  0.07938715  0.00171328  0.76389656    -0.30800
C892        C  0.18008797  0.90407176  0.77568069    -0.31100
N893        N  0.15638248  0.88018203  0.74455080     0.13900
H894        H  0.20661758  0.89358193  0.80047643     0.16500
C895        C  0.12472532  0.90355805  0.72062727    -0.31100
H896        H  0.09996296  0.89255896  0.69410422     0.16500
H897        H  0.05759620  0.02222611  0.74322163     0.16500
H898        H  0.20850424  0.57069459  0.80024249     0.16600
H899        H  0.15088379  0.99670529  0.84837370     0.16500
O900        O  0.05994769  0.75035358  0.54263752    -0.57400
C901        C  0.11099403  0.73482914  0.65243802     0.75200
O902        O  0.00733365  0.74357989  0.60722725    -0.58600
C903        C  0.02752839  0.75369657  0.51172160     0.75200
C904        C  0.01394433  0.64724838  0.56275887     0.77500
Cd905      Cd  0.03802353  0.73333674  0.57908311     1.37500
O906        O  0.10221358  0.76451181  0.62978308    -0.57400
O907        O  0.04620239  0.65983885  0.57342689    -0.56300
C908        C  0.00242237  0.78260170  0.60015927     0.77500
O909        O  0.99181972  0.67547756  0.55768237    -0.58600
O910        O  0.08723930  0.70449365  0.64048393    -0.57100
O911        O  0.99961919  0.75088182  0.51191101    -0.57100
O912        O  0.01031588  0.79784546  0.58019084    -0.56200
O913        O  0.32658961  0.49754794  0.54073896    -0.57400
C914        C  0.36774119  0.01408548  0.65081902     0.75200
O915        O  0.26266634  0.54172921  0.58256215    -0.58600
C916        C  0.29552125  0.50600071  0.50971571     0.75200
C917        C  0.25962431  0.93116764  0.56092446     0.77500
Cd918      Cd  0.30168545  0.50841049  0.57404361     1.37500
O919        O  0.35997725  0.04115911  0.62679598    -0.57400
O920        O  0.29292758  0.93047552  0.57086657    -0.56300
C921        C  0.27134274  0.57763882  0.57685212     0.77500
O922        O  0.24523264  0.96694001  0.55560288    -0.58600
O923        O  0.34671522  0.98106068  0.63899206    -0.57100
O924        O  0.26888178  0.51813489  0.50921934    -0.57100
O925        O  0.28723421  0.57941879  0.56208736    -0.56200
C926        C  0.06763999  0.57313726  0.84283077     0.86900
C927        C  0.08769676  0.56013092  0.82777453    -0.53400
C928        C  0.07551090  0.02088837  0.81254493     0.09800
C929        C  0.04272752  0.99953866  0.81119574     0.20700
C930        C  0.52661694  0.57298100  0.81209656    -0.54100
C931        C  0.51290370  0.03312075  0.79446460     0.09900
C932        C  0.07199575  0.53606465  0.86677364    -0.53600
C933        C  0.05875359  0.99889176  0.85137171     0.10500
H934        H  0.11038137  0.57880602  0.83130661     0.15000
H935        H  0.03323620  0.96773587  0.79820961     0.00700
H936        H  0.51049446  0.60098134  0.80192230     0.15300
H937        H  0.08073696  0.04024209  0.89605545     0.15100
C938        C  0.47103862  0.02474631  0.75929354     0.30400
C939        C  0.40269551  0.01919647  0.69041052     0.30400
C940        C  0.44185085  0.56179397  0.74977368    -0.05800
C941        C  0.47167200  0.02271892  0.72670477    -0.06600
C942        C  0.44703779  0.98323341  0.75242839    -0.06500
C943        C  0.40769846  0.56031144  0.71415134    -0.05800
C944        C  0.43745545  0.02253218  0.69199939    -0.06600
C945        C  0.41198940  0.98102572  0.71713816    -0.06500
C946        C  0.38913586  0.59837084  0.70854365    -0.31900
N947        N  0.40993460  0.62205261  0.74022150     0.14600
C948        C  0.44078128  0.59873817  0.76561134    -0.31900
H949        H  0.46060612  0.60789977  0.79405021     0.16600
C950        C  0.44403995  0.01420045  0.66721963    -0.30800
N951        N  0.48090391  0.00468143  0.68636021     0.13400
C952        C  0.49577079  0.00449900  0.72209006    -0.30800
C953        C  0.39630336  0.94063794  0.71360068    -0.31100
N954        N  0.41980520  0.91739603  0.74496284     0.13900
H955        H  0.37002498  0.92856279  0.68897170     0.16500
C956        C  0.45120446  0.94315472  0.76880026    -0.31100
H957        H  0.47598076  0.93327961  0.79545197     0.16500
H958        H  0.01617121  0.98529244  0.74218967     0.16500
H959        H  0.36313184  0.60833977  0.68289685     0.16600
H960        H  0.42311689  0.01189675  0.63768712     0.16500
C961        C  0.25554875  0.79155175  0.62960869     0.86900
C962        C  0.23504047  0.79017034  0.64647781    -0.53400
C963        C  0.24763117  0.75909501  0.67226045     0.09800
C964        C  0.28177072  0.73485026  0.68105611     0.20700
C965        C  0.29799974  0.79737552  0.66215712    -0.54100
C966        C  0.31244033  0.76859714  0.68971976     0.09900
C967        C  0.25010319  0.74678783  0.61629631    -0.53600
C968        C  0.26528321  0.71753827  0.64324569     0.10500
H969        H  0.21063636  0.80841669  0.63705548     0.15000
H970        H  0.29246766  0.70983480  0.70223727     0.00700
H971        H  0.31483643  0.82154370  0.66156956     0.15300
H972        H  0.23770411  0.73874786  0.58816299     0.15100
C973        C  0.35351740  0.77046534  0.72636881     0.30400
C974        C  0.42098577  0.76799835  0.79618112     0.30400
C975        C  0.38211755  0.80885487  0.73695434    -0.05800
C976        C  0.35184402  0.77278192  0.75797666    -0.06600
C977        C  0.37775111  0.72976333  0.73624406    -0.06500
C978        C  0.41664091  0.80757620  0.77272139    -0.05800
C979        C  0.38524395  0.76887673  0.79289844    -0.06600
C980        C  0.41234411  0.72905608  0.77165379    -0.06500
C981        C  0.43479536  0.84781289  0.77966123    -0.31900
N982        N  0.41279531  0.87357886  0.74959254     0.14600
C983        C  0.38055134  0.85027057  0.72431707    -0.31900
H984        H  0.35656333  0.86400973  0.69954863     0.16600
C985        C  0.37627809  0.76604764  0.81636334    -0.30800
N986        N  0.33844929  0.77065423  0.79626103     0.13400
C987        C  0.32421631  0.77870296  0.76128325    -0.30800
C988        C  0.42747797  0.68902140  0.77662619    -0.31100
N989        N  0.40357737  0.66476867  0.74566333     0.13900
H990        H  0.45369667  0.67823758  0.80158021     0.16500
C991        C  0.37301746  0.68930496  0.72131651    -0.33100
H992        H  0.34833244  0.67783768  0.69550056     0.16500
H993        H  0.29628932  0.78984928  0.74005742     0.16500
H994        H  0.46109276  0.85791987  0.80545485     0.16600
H995        H  0.39554265  0.76028763  0.84561696     0.16500
O996        O  0.49544375  0.75969817  0.94741642    -0.57400
C997        C  0.45520540  0.76812205  0.83645395     0.75200
O998        O  0.57147223  0.82463391  0.93023273    -0.58600
C999        C  0.02499718  0.76126158  0.97703121     0.75200
C1000       C  0.56580758  0.72061905  0.90682514     0.77500
Cd1001     Cd  0.52199619  0.77388533  0.91361974     1.37500
O1002       O  0.46163505  0.79856051  0.85713469    -0.57400
O1003       O  0.54892536  0.70638238  0.91904388    -0.56300
C1004       C  0.54922026  0.85518009  0.91545025     0.77500
O1005       O  0.06439459  0.75636626  0.89943404    -0.58600
O1006       O  0.47756399  0.73763412  0.85205834    -0.57100
O1007       O  0.05377718  0.76638166  0.97854370    -0.57100
O1008       O  0.51600215  0.84853501  0.90488594    -0.56200
C1009       C  0.10363024  0.61806134  0.90114544    -0.08800
C1010       C  0.08167673  0.61584689  0.86255052     0.07400
C1011       C  0.56906983  0.65764753  0.84290036    -0.02600
C1012       C  0.56769309  0.69343335  0.85912170    -0.07000
C1013       C  0.58163670  0.69204353  0.89570171     0.06500
C1014       C  0.10351221  0.65405719  0.91780519    -0.02000
Br1015     Br  0.13034473  0.65419383  0.96982592    -0.01700
H1016       H  0.11947030  0.59149825  0.91853993     0.10400
H1017       H  0.55257403  0.72076376  0.84223669     0.08500
Br1018     Br  0.54959550  0.66206346  0.79268344    -0.02200
C1019       C  0.08321581  0.93051042  0.88163333    -0.08800
C1020       C  0.05736237  0.96237360  0.86993576     0.07400
C1021       C  0.53560884  0.96344429  0.87753197    -0.02600
C1022       C  0.53476868  0.92895749  0.89585708    -0.07000
C1023       C  0.55937100  0.89540445  0.90708665     0.06500
C1024       C  0.08390963  0.89588401  0.90094580    -0.02000
Br1025     Br  0.11986037  0.85331221  0.91403598    -0.01700
H1026       H  0.10277091  0.93253005  0.87549423     0.10400
H1027       H  0.51335433  0.92740830  0.89959750     0.08500
Br1028     Br  0.49945697  0.00683041  0.86142902    -0.02200
C1029       C  0.25768266  0.85480825  0.56086188    -0.08800
C1030       C  0.24112555  0.89179879  0.55984137     0.07400
C1031       C  0.21835903  0.89065449  0.57093122    -0.02600
C1032       C  0.21973588  0.85565286  0.59035977    -0.07000
C1033       C  0.24412107  0.82243777  0.59933301     0.06500
C1034       C  0.26145186  0.82118496  0.58219859    -0.02000
Br1035     Br  0.29683805  0.77972093  0.59138896    -0.01700
H1036       H  0.27366195  0.85487311  0.55061442     0.10400
H1037       H  0.20454485  0.85713799  0.60118697     0.08500
Br1038     Br  0.18944806  0.93772000  0.56553678    -0.02200
C1039       C  0.29715109  0.67861553  0.62698579    -0.08800
C1040       C  0.27259287  0.67708858  0.63565736     0.07400
C1041       C  0.24651793  0.64357190  0.62374874    -0.02600
C1042       C  0.24439497  0.61240912  0.60191193    -0.07000
C1043       C  0.26812292  0.61485787  0.59197932     0.06500
C1044       C  0.29486482  0.64847738  0.60479113    -0.02000
Br1045     Br  0.33023701  0.65593436  0.59480339    -0.01700
H1046       H  0.31675695  0.70526885  0.63583451     0.10400
H1047       H  0.22456173  0.58599388  0.59309163     0.08500
Br1048     Br  0.21266608  0.64054241  0.63548574    -0.02200
C1049       C  0.02949865  0.53348821  0.58785818    -0.08800
C1050       C  0.00160393  0.52781849  0.59240019     0.07400
C1051       C  0.96888314  0.55227249  0.57007513    -0.02600
C1052       C  0.97101135  0.59026700  0.55563753    -0.07000
C1053       C  0.00425526  0.60188347  0.56074026     0.06500
C1054       C  0.03109640  0.57055099  0.57208824    -0.02000
Br1055     Br  0.07204793  0.57760448  0.56985460    -0.01700
H1056       H  0.05212635  0.51127601  0.59971108     0.10400
H1057       H  0.94790620  0.61196908  0.54304469     0.08500
Br1058     Br  0.42340085  0.53676005  0.56054842    -0.02200
C1059       C  0.01986198  0.85975600  0.66742912    -0.08800
C1060       C  0.99390041  0.88984272  0.64264410     0.07400
C1061       C  0.96121534  0.87603704  0.60796928    -0.02600
C1062       C  0.96146502  0.83724892  0.59441702    -0.07000
C1063       C  0.99173423  0.81034570  0.61699681     0.06500
C1064       C  0.01797148  0.81912560  0.65487238    -0.02000
Br1065     Br  0.05477262  0.77899210  0.68903695    -0.01700
H1066       H  0.04384939  0.86894230  0.69506260     0.10400
H1067       H  0.93971944  0.82962933  0.56569507     0.08500
Br1068     Br  0.91808328  0.91118550  0.57683739    -0.02200
C1069       C  0.30587531  0.82748720  0.92685192    -0.08800
C1070       C  0.33032510  0.86207085  0.93566896     0.07400
C1071       C  0.35789835  0.85817096  0.93094590    -0.02600
C1072       C  0.35149089  0.82862779  0.90589179    -0.07000
C1073       C  0.31887683  0.80208221  0.88721576     0.06500
C1074       C  0.30010536  0.79684639  0.90269328    -0.02000
Br1075     Br  0.26678630  0.74989835  0.89287762    -0.01700
H1076       H  0.28740493  0.82745576  0.93428318     0.10400
H1077       H  0.37158908  0.82743375  0.90058471     0.08500
Br1078     Br  0.40162057  0.89527581  0.95403034    -0.02200
C1079       C  0.33997087  0.59633003  0.88361946    -0.08800
C1080       C  0.31056054  0.59115579  0.88602437     0.07400
C1081       C  0.28224919  0.62148634  0.87067346    -0.02600
C1082       C  0.28413830  0.65641729  0.85383897    -0.07000
C1083       C  0.31391816  0.66261992  0.85236111     0.06500
C1084       C  0.34226808  0.63270313  0.86753886    -0.02000
Br1085     Br  0.38540289  0.64219514  0.86914295    -0.01700
H1086       H  0.36156473  0.57279190  0.89511257     0.10400
H1087       H  0.26332930  0.68053503  0.84391406     0.08500
Br1088     Br  0.23949960  0.61801416  0.87063887    -0.02200
O1089       O  0.75817716  0.00136351  0.44483097    -0.57400
C1090       C  0.70850786  0.47776876  0.33301881     0.75200
O1091       O  0.81552307  0.01603291  0.39449569    -0.58600
C1092       C  0.79051748  0.99836650  0.47598306     0.75200
C1093       C  0.81130357  0.40168858  0.42856613     0.77500
Cd1094     Cd  0.77756380  0.47993475  0.40875245     1.37500
O1095       O  0.70915799  0.47444754  0.36059792    -0.57400
O1096       O  0.78046318  0.40614509  0.42324857    -0.56300
C1097       C  0.80887105  0.05178924  0.40084554     0.77500
O1098       O  0.82628063  0.43426288  0.42569820    -0.58600
O1099       O  0.74037991  0.47968435  0.34007933    -0.57100
O1100       O  0.81780583  0.98863527  0.47662120    -0.57100
O1101       O  0.79555036  0.05302604  0.41794964    -0.56200
C1102       C  0.80846923  0.27336164  0.35381122     0.86900
C1103       C  0.82296006  0.29123345  0.33357364    -0.53400
C1104       C  0.81688276  0.26454912  0.30778962     0.09800
C1105       C  0.79464490  0.22301980  0.30314831     0.20700
C1106       C  0.76584663  0.26361417  0.32278831    -0.54100
C1107       C  0.75749643  0.23823672  0.29488055     0.09900
C1108       C  0.82711975  0.23134844  0.36828372    -0.53600
C1109       C  0.81848326  0.20388331  0.34201320     0.10500
H1110       H  0.83868007  0.32093169  0.34010159     0.15000
H1111       H  0.79108592  0.19902853  0.28424097     0.00700
H1112       H  0.74416638  0.27657624  0.32298893     0.15300
H1113       H  0.84056625  0.22144197  0.39639320     0.15100
C1114       C  0.71683941  0.23499147  0.25713159     0.30400
C1115       C  0.64684074  0.23402933  0.18890319     0.30400
C1116       C  0.69012907  0.27309451  0.24794938    -0.05800
C1117       C  0.71608635  0.23572818  0.22357135    -0.06600
C1118       C  0.69147839  0.19453471  0.24831362    -0.06500
C1119       C  0.65434074  0.27166413  0.21359100    -0.05800
C1120       C  0.68098488  0.23788606  0.18934055    -0.06600
C1121       C  0.65588389  0.19393628  0.21356162    -0.06500
C1122       C  0.63807198  0.31114261  0.20746623    -0.31900
N1123       N  0.66224183  0.33682142  0.23703860     0.14600
C1124       C  0.69441847  0.31455483  0.26094463    -0.31900
H1125       H  0.72010882  0.32886026  0.28471437     0.16600
C1126       C  0.68722068  0.24657174  0.16414590    -0.30800
N1127       N  0.72510083  0.24622805  0.18210636     0.13400
C1128       C  0.74196228  0.23619987  0.21727101    -0.30800
C1129       C  0.63977494  0.15338925  0.20922611    -0.31100
N1130       N  0.66412112  0.12922472  0.23979726     0.13900
H1131       H  0.61280116  0.14200804  0.18488487     0.16500
C1132       C  0.69585193  0.15399367  0.26323805    -0.31100
H1133       H  0.72101224  0.14244010  0.28824535     0.16500
H1134       H  0.77079245  0.22854045  0.23597163     0.16500
H1135       H  0.61153823  0.32103329  0.18235375     0.16600
H1136       H  0.66601298  0.25344840  0.13529054     0.16500
C1137       C  0.51250900  0.00326179  0.12718674     0.86900
C1138       C  0.49376798  0.01972263  0.14341799    -0.53400
C1139       C  0.49924517  0.49690096  0.17046854     0.09800
C1140       C  0.52622103  0.46007554  0.18130375     0.20700
C1141       C  0.55483455  0.00164353  0.16016847    -0.54100
C1142       C  0.56269743  0.48058040  0.18856329     0.09900
C1143       C  0.49908016  0.45940313  0.11670392    -0.53600
C1144       C  0.50521229  0.43561315  0.14466754     0.10500
H1145       H  0.47649508  0.04754595  0.13345264     0.15000
H1146       H  0.53174268  0.44048164  0.20414380     0.00700
H1147       H  0.57671507  0.01698221  0.16043624     0.15300
H1148       H  0.48630371  0.44676573  0.08964018     0.15100
C1149       C  0.60338235  0.48109755  0.22540854     0.30400
C1150       C  0.67171560  0.47944990  0.29410742     0.30400
C1151       C  0.63018759  0.02075957  0.23622940    -0.05800
C1152       C  0.60229883  0.48065635  0.25739948    -0.06600
C1153       C  0.62842002  0.44230406  0.23378610    -0.06500
C1154       C  0.66542756  0.02065193  0.27118339    -0.05800
C1155       C  0.63648098  0.47778823  0.29251367    -0.06600
C1156       C  0.66340919  0.44207176  0.26872731    -0.06500
C1157       C  0.68220294  0.06094686  0.27583551    -0.31900
N1158       N  0.65824593  0.08557407  0.24534540     0.14600
C1159       C  0.62625964  0.06137721  0.22163395    -0.31900
H1160       H  0.60105959  0.07334165  0.19644233     0.16600
C1161       C  0.62980226  0.49057721  0.31651048    -0.30800
N1162       N  0.59337617  0.50208795  0.29675225     0.13400
C1163       C  0.57924671  0.50192641  0.26141802    -0.30800
C1164       C  0.67971279  0.40339596  0.27301395    -0.31100
N1165       N  0.65611219  0.37965805  0.24182005     0.13900
H1166       H  0.70605165  0.39272805  0.29793057     0.16500
C1167       C  0.62451264  0.40311835  0.21781385    -0.31100
H1168       H  0.59977319  0.39213216  0.19127222     0.16500
H1169       H  0.55764669  0.52272724  0.24084170     0.16500
H1170       H  0.70936262  0.07166207  0.30026471     0.16600
H1171       H  0.65040381  0.49545776  0.34577571     0.16500
O1172       O  0.55940160  0.25963446  0.04246788    -0.57400
C1173       C  0.60969027  0.23385692  0.15010361     0.75200
O1174       O  0.50965340  0.24361140  0.10825360    -0.58600
C1175       C  0.52837311  0.25327498  0.01060004     0.75200
C1176       C  0.51253434  0.14670286  0.06105922     0.77500
Cd1177     Cd  0.53646405  0.23259893  0.07669833     1.37500
O1178       O  0.59885557  0.26569651  0.12897427    -0.57400
O1179       O  0.54502462  0.15970736  0.07264800    -0.56300
C1180       C  0.49972475  0.28093312  0.09694325     0.77500
O1181       O  0.48949861  0.17465787  0.05442711    -0.58600
O1182       O  0.58818914  0.20136067  0.13641741    -0.57100
O1183       O  0.50079210  0.24000441  0.00919040    -0.57100
O1184       O  0.50255171  0.29408979  0.07283508    -0.56200
O1185       O  0.82766043  0.99594987  0.04048539    -0.57400
C1186       C  0.86635190  0.51612926  0.14976096     0.75200
O1187       O  0.75943607  0.04079474  0.07769381    -0.58600
C1188       C  0.79659853  0.00378974  0.00927510     0.75200
C1189       C  0.75727502  0.43356226  0.05859738     0.77500
Cd1190     Cd  0.80099582  0.00555340  0.07260516     1.37500
O1191       O  0.85814358  0.54410094  0.12615185    -0.57400
O1192       O  0.78963035  0.43298620  0.06637156    -0.56300
C1193       C  0.77103381  0.07641311  0.07478027     0.77500
O1194       O  0.74403558  0.46930031  0.05593963    -0.58600
O1195       O  0.84547950  0.48301690  0.13735038    -0.57100
O1196       O  0.76931728  0.01439134  0.00828213    -0.57100
O1197       O  0.79001694  0.07733623  0.06323289    -0.56200
C1198       C  0.56923307  0.07205846  0.34434079     0.86900
C1199       C  0.58899070  0.05871104  0.32904419    -0.53400
C1200       C  0.57594341  0.52105361  0.31064419     0.09800
C1201       C  0.54373690  0.49941236  0.31003326     0.20700
C1202       C  0.02611522  0.06933192  0.31247501    -0.54100
C1203       C  0.01145702  0.53140491  0.29419337     0.09900
C1204       C  0.57378030  0.03520224  0.36855062    -0.53600
C1205       C  0.56036411  0.49840558  0.35037522     0.10500
H1206       H  0.61169419  0.07714672  0.33242113     0.15000
H1207       H  0.53408905  0.46767380  0.29694269     0.00700
H1208       H  0.01067898  0.09774811  0.30290327     0.15300
H1209       H  0.58289019  0.53932291  0.39534628     0.15100
C1210       C  0.96964459  0.52436614  0.25871621     0.30400
C1211       C  0.90146736  0.52028471  0.18954684     0.30400
C1212       C  0.94094205  0.06109433  0.24797098    -0.05800
C1213       C  0.97056086  0.52371527  0.22630514    -0.06600
C1214       C  0.94550425  0.48283259  0.25085719    -0.06500
C1215       C  0.90673325  0.05942665  0.21227434    -0.05800
C1216       C  0.93640413  0.52446055  0.19143745    -0.06600
C1217       C  0.91061312  0.48118465  0.21543069    -0.06500
C1218       C  0.88822157  0.09768426  0.20607793    -0.31900
N1219       N  0.90903794  0.12191755  0.23737988     0.14600
C1220       C  0.93996623  0.09880580  0.26313057    -0.31900
H1221       H  0.95966016  0.10853101  0.29138457     0.16600
C1222       C  0.94306003  0.51569205  0.16680525    -0.30800
N1223       N  0.97968999  0.50509183  0.18604548     0.13400
C1224       C  0.99431319  0.50462955  0.22165229    -0.30800
C1225       C  0.89496220  0.44058518  0.21118848    -0.31100
N1226       N  0.91835404  0.41692970  0.24232657     0.13900
H1227       H  0.86877225  0.42874174  0.18632253     0.16500
C1228       C  0.94961710  0.44250261  0.26666107    -0.31100
H1229       H  0.97422020  0.43238503  0.29332533     0.16500
H1230       H  0.51692435  0.48475583  0.24113764     0.16500
H1231       H  0.86217152  0.10734827  0.18030422     0.16600
H1232       H  0.92220805  0.51364072  0.13725296     0.16500
C1233       C  0.75362039  0.29247104  0.12640104     0.86900
C1234       C  0.73291981  0.29050943  0.14307576    -0.53400
C1235       C  0.74543232  0.25918213  0.16863399     0.09800
C1236       C  0.77958125  0.23501273  0.17729041     0.20700
C1237       C  0.79605239  0.29801663  0.15915967    -0.54100
C1238       C  0.81046293  0.26878869  0.18645314     0.09900
C1239       C  0.74829317  0.24791432  0.11267782    -0.53600
C1240       C  0.76321714  0.21823647  0.13930254     0.10500
H1241       H  0.70861040  0.30881776  0.13385841     0.15000
H1242       H  0.79013889  0.20970897  0.19821301     0.00700
H1243       H  0.81288879  0.32232148  0.15877263     0.15300
H1244       H  0.73613848  0.24035213  0.08452624     0.15100
C1245       C  0.85173580  0.27019428  0.22317072     0.30400
C1246       C  0.91951328  0.26748478  0.29299690     0.30400
C1247       C  0.88048566  0.30849441  0.23381883    -0.05800
C1248       C  0.85033299  0.27236790  0.25501264    -0.06600
C1249       C  0.87596761  0.22943019  0.23289213    -0.06500
C1250       C  0.91510518  0.30708318  0.26958996    -0.05800
C1251       C  0.88390297  0.26852135  0.28986846    -0.06600
C1252       C  0.91063345  0.22875403  0.26828456    -0.06500
C1253       C  0.93328557  0.34724215  0.27663236    -0.31900
N1254       N  0.91133701  0.37304478  0.24661458     0.14600
C1255       C  0.87909279  0.34988370  0.22122143    -0.31900
H1256       H  0.85527512  0.36382111  0.19647265     0.16600
C1257       C  0.87534455  0.26585364  0.31363547    -0.30800
N1258       N  0.83757030  0.27036052  0.29385849     0.13400
C1259       C  0.82293805  0.27816655  0.25870013    -0.30800
C1260       C  0.92606456  0.18901136  0.27325427    -0.31100
N1261       N  0.90233662  0.16467300  0.24238376     0.13900
H1262       H  0.95241656  0.17846258  0.29817296     0.16500
C1263       C  0.87154838  0.18901540  0.21790999    -0.33100
H1264       H  0.84703536  0.17759016  0.19191098     0.16500
H1265       H  0.79495737  0.28927703  0.23761483     0.16500
H1266       H  0.95955220  0.35729592  0.30247299     0.16600
H1267       H  0.89484958  0.26011400  0.34288300     0.16500
O1268       O  0.99302454  0.24866372  0.44459093    -0.57400
C1269       C  0.95378515  0.26678276  0.33337663     0.75200
O1270       O  0.06790542  0.32043166  0.42854056    -0.58600
C1271       C  0.52593702  0.26186220  0.47781691     0.75200
C1272       C  0.06611953  0.21560105  0.40819094     0.77500
Cd1273     Cd  0.01951083  0.26911915  0.41163550     1.37500
O1274       O  0.96115805  0.29727316  0.35435744    -0.57400
O1275       O  0.04664132  0.20124275  0.41753614    -0.56300
C1276       C  0.04488024  0.35024741  0.41265606     0.77500
O1277       O  0.56636368  0.25566107  0.40201853    -0.58600
O1278       O  0.97480962  0.23516987  0.34891599    -0.57100
O1279       O  0.55443519  0.26888404  0.47913006    -0.57100
O1280       O  0.01163964  0.34336726  0.40199745    -0.56200
C1281       C  0.60472526  0.11768663  0.40215265    -0.08800
C1282       C  0.58319683  0.11493726  0.36366351     0.07400
C1283       C  0.07127802  0.15256837  0.34574800    -0.02600
C1284       C  0.07071462  0.18875767  0.36215771    -0.07000
C1285       C  0.08309950  0.18702685  0.39821422     0.06500
C1286       C  0.60348712  0.15363416  0.41812821    -0.02000
Br1287     Br  0.63013536  0.15484091  0.47007875    -0.01700
H1288       H  0.62092600  0.09147951  0.41990356     0.10400
H1289       H  0.05703806  0.21672709  0.34558063     0.08500
Br1290     Br  0.05351828  0.15733740  0.29610209    -0.02200
C1291       C  0.58220941  0.42875706  0.37901109    -0.08800
C1292       C  0.55790269  0.46203591  0.36847278     0.07400
C1293       C  0.03400445  0.46025483  0.37848809    -0.02600
C1294       C  0.03294027  0.42512162  0.39616213    -0.07000
C1295       C  0.05444420  0.38974471  0.40317781     0.06500
C1296       C  0.58195176  0.39427026  0.39789758    -0.02000
Br1297     Br  0.61571207  0.34967529  0.40931089    -0.01700
H1298       H  0.60138469  0.42961943  0.37239896     0.10400
H1299       H  0.01395012  0.42471023  0.40298562     0.08500
Br1300     Br  0.00172882  0.50633313  0.36771087    -0.02200
C1301       C  0.75562398  0.35722824  0.05807873    -0.08800
C1302       C  0.73884181  0.39393555  0.05718506     0.07400
C1303       C  0.71589983  0.39213053  0.06807509    -0.02600
C1304       C  0.71752994  0.35685521  0.08743080    -0.07000
C1305       C  0.74227530  0.32398478  0.09645653     0.06500
C1306       C  0.75974566  0.32344143  0.07943675    -0.02000
Br1307     Br  0.79574044  0.28279978  0.08879859    -0.01700
H1308       H  0.77159140  0.35767400  0.04781261     0.10400
H1309       H  0.70206226  0.35777045  0.09799694     0.08500
Br1310     Br  0.68579158  0.43836544  0.06180289    -0.02200
C1311       C  0.79478482  0.17929903  0.12257783    -0.08800
C1312       C  0.77036727  0.17777877  0.13139813     0.07400
C1313       C  0.74479906  0.14382297  0.12012763    -0.02600
C1314       C  0.74362698  0.11174033  0.09943481    -0.07000
C1315       C  0.76724209  0.11407030  0.08933055     0.06500
C1316       C  0.79280271  0.14876190  0.10078025    -0.02000
Br1317     Br  0.82607472  0.15819012  0.08841709    -0.01700
H1318       H  0.81387868  0.20633707  0.13080406     0.10400
H1319       H  0.72437333  0.08491323  0.09139861     0.08500
Br1320     Br  0.71013039  0.14152275  0.13089276    -0.02200
C1321       C  0.53202952  0.03498077  0.09048098    -0.08800
C1322       C  0.50385256  0.02836520  0.09453150     0.07400
C1323       C  0.47004432  0.05066813  0.07064276    -0.02600
C1324       C  0.47082422  0.08835839  0.05490154    -0.07000
C1325       C  0.50389332  0.10118628  0.06003670     0.06500
C1326       C  0.53210717  0.07117237  0.07300324    -0.02000
Br1327     Br  0.57293879  0.07914193  0.07064198    -0.01700
H1328       H  0.55546614  0.01381990  0.10310190     0.10400
H1329       H  0.44678790  0.10884883  0.04115957     0.08500
Br1330     Br  0.92348512  0.03439849  0.05956486    -0.02200
C1331       C  0.51877303  0.36037020  0.16357094    -0.08800
C1332       C  0.49299873  0.39049496  0.13862228     0.07400
C1333       C  0.46025909  0.37664396  0.10392040    -0.02600
C1334       C  0.45978845  0.33704436  0.09098976    -0.07000
C1335       C  0.48971717  0.30980659  0.11376244     0.06500
C1336       C  0.51642455  0.31930309  0.15150055    -0.02000
Br1337     Br  0.55349553  0.27969847  0.18627330    -0.01700
H1338       H  0.54288764  0.36968470  0.19110590     0.10400
H1339       H  0.43776384  0.32898900  0.06241735     0.08500
Br1340     Br  0.41742404  0.41195109  0.07195127    -0.02200
C1341       C  0.80094597  0.32529387  0.42200707    -0.08800
C1342       C  0.82574544  0.35983359  0.43189648     0.07400
C1343       C  0.85456625  0.35609990  0.42885585    -0.02600
C1344       C  0.84971389  0.32639661  0.40459995    -0.07000
C1345       C  0.81747791  0.29932206  0.38529896     0.06500
C1346       C  0.79725636  0.29403448  0.39929525    -0.02000
Br1347     Br  0.76459312  0.24619052  0.38918178    -0.01700
H1348       H  0.78121389  0.32524626  0.42790944     0.10400
H1349       H  0.87053446  0.32561661  0.40019684     0.08500
Br1350     Br  0.89804356  0.39379629  0.45337738    -0.02200
C1351       C  0.84062306  0.09504529  0.38180148    -0.08800
C1352       C  0.81179980  0.08990448  0.38503296     0.07400
C1353       C  0.78285705  0.11946760  0.36909488    -0.02600
C1354       C  0.78388953  0.15407223  0.35141893    -0.07000
C1355       C  0.81317375  0.16049059  0.34923126     0.06500
C1356       C  0.84181874  0.13086924  0.36445421    -0.02000
Br1357     Br  0.88381022  0.13989252  0.36419359    -0.01700
H1358       H  0.86255853  0.07189744  0.39353877     0.10400
H1359       H  0.76298023  0.17803875  0.34161990     0.08500
Br1360     Br  0.74035989  0.11516336  0.36942067    -0.02200
O1361       O  0.75868782  0.00003996  0.94437768    -0.57400
C1362       C  0.70896622  0.47986797  0.83436396     0.75200
O1363       O  0.81615327  0.01847090  0.89416279    -0.58600
C1364       C  0.79136851  0.99893549  0.97537946     0.75200
C1365       C  0.81362748  0.40473316  0.92909183     0.77500
Cd1366     Cd  0.77924636  0.48228346  0.90980643     1.37500
O1367       O  0.71023582  0.47616710  0.86229681    -0.57400
O1368       O  0.78312902  0.40874253  0.92453632    -0.56300
C1369       C  0.80932727  0.05392237  0.90083582     0.77500
O1370       O  0.82774063  0.43739137  0.92522777    -0.58600
O1371       O  0.74057978  0.48225017  0.84091633    -0.57100
O1372       O  0.81898948  0.99185734  0.97579080    -0.57100
O1373       O  0.79569314  0.05443584  0.91766955    -0.56200
C1374       C  0.80943920  0.27620051  0.85440067     0.86900
C1375       C  0.82324583  0.29384674  0.83351778    -0.53400
C1376       C  0.81699916  0.26681930  0.80790278     0.09800
C1377       C  0.79509688  0.22529944  0.80390277     0.20700
C1378       C  0.76678680  0.26616680  0.82391720    -0.54100
C1379       C  0.75817049  0.24048120  0.79607861     0.09900
C1380       C  0.82834311  0.23436576  0.86907565    -0.53600
C1381       C  0.81935658  0.20661567  0.84287933     0.10500
H1382       H  0.83867173  0.32365222  0.83948122     0.15000
H1383       H  0.79137576  0.20097774  0.78513991     0.00700
H1384       H  0.74529259  0.27913124  0.82439127     0.15300
H1385       H  0.84214903  0.22474857  0.89732421     0.15100
C1386       C  0.71743972  0.23714315  0.75861730     0.30400
C1387       C  0.64723226  0.23605764  0.69070742     0.30400
C1388       C  0.69109685  0.27565477  0.74926347    -0.05800
C1389       C  0.71632244  0.23676708  0.72486446    -0.06600
C1390       C  0.69184166  0.19721380  0.75044668    -0.06500
C1391       C  0.65521558  0.27413157  0.71507067    -0.05800
C1392       C  0.68109278  0.23881568  0.69080827    -0.06600
C1393       C  0.65609676  0.19659979  0.71578067    -0.06500
C1394       C  0.63862177  0.31320377  0.70917491    -0.31900
N1395       N  0.66280734  0.33878928  0.73876999     0.14600
C1396       C  0.69520237  0.31685829  0.76248878    -0.31900
H1397       H  0.72078043  0.33123454  0.78631905     0.16600
C1398       C  0.68682809  0.24721416  0.66527269    -0.30800
N1399       N  0.72457923  0.24687282  0.68288150     0.13400
C1400       C  0.74186846  0.23707706  0.71815970    -0.30800
C1401       C  0.64016937  0.15607827  0.71136538    -0.31100
N1402       N  0.66470599  0.13187234  0.74177448     0.13900
H1403       H  0.61337382  0.14458790  0.68687945     0.16500
C1404       C  0.69645955  0.15659199  0.76526020    -0.31100
H1405       H  0.72188550  0.14488683  0.78996744     0.16500
H1406       H  0.77079513  0.22981031  0.73666385     0.16500
H1407       H  0.61178218  0.32284896  0.68428974     0.16600
H1408       H  0.66541497  0.25418097  0.63647334     0.16500
C1409       C  0.51310770  0.00677248  0.62724657     0.86900
C1410       C  0.49451433  0.02269610  0.64379676    -0.53400
C1411       C  0.49984983  0.49741810  0.67259618     0.09800
C1412       C  0.52627092  0.46015164  0.68338925     0.20700
C1413       C  0.55550548  0.00508415  0.66012178    -0.54100
C1414       C  0.56269329  0.48016135  0.69036376     0.09900
C1415       C  0.49856045  0.45878864  0.61858959    -0.53600
C1416       C  0.50473521  0.43538483  0.64677470     0.10500
H1417       H  0.47712627  0.05039571  0.63408815     0.15000
H1418       H  0.53182242  0.44096110  0.70642684     0.00700
H1419       H  0.57726020  0.02073612  0.66035321     0.15300
H1420       H  0.48540928  0.44594184  0.59150623     0.15100
C1421       C  0.60321316  0.48180189  0.72718463     0.30400
C1422       C  0.67183402  0.48127297  0.79559708     0.30400
C1423       C  0.63168594  0.02251051  0.73600203    -0.05800
C1424       C  0.60241174  0.48180717  0.75932975    -0.06600
C1425       C  0.62843912  0.44341191  0.73574181    -0.06500
C1426       C  0.66678133  0.02219555  0.77110130    -0.05800
C1427       C  0.63686698  0.47951572  0.79443777    -0.06600
C1428       C  0.66353634  0.44362129  0.77051074    -0.06500
C1429       C  0.68315908  0.06294320  0.77679219    -0.31900
N1430       N  0.65925318  0.08785814  0.74657638     0.14600
C1431       C  0.62755321  0.06360474  0.72226126    -0.31900
H1432       H  0.60220943  0.07593058  0.69743476     0.16600
C1433       C  0.63062890  0.49376272  0.81839755    -0.30800
N1434       N  0.59427786  0.50547265  0.79864374     0.13400
C1435       C  0.57970501  0.50401252  0.76324467    -0.30800
C1436       C  0.68004720  0.40514221  0.77484031    -0.31100
N1437       N  0.65639263  0.38128890  0.74374537     0.13900
H1438       H  0.70662080  0.39474827  0.79964122     0.16500
C1439       C  0.62457623  0.40434170  0.71982714    -0.31100
H1440       H  0.59980106  0.39319098  0.69337306     0.16500
H1441       H  0.55804629  0.52455779  0.74241056     0.16500
H1442       H  0.70966665  0.07391871  0.80189064     0.16600
H1443       H  0.65150312  0.49936293  0.84753981     0.16500
O1444       O  0.56192553  0.25748576  0.54344526    -0.57400
C1445       C  0.61028460  0.23601995  0.65192226     0.75200
O1446       O  0.50931724  0.24454828  0.60796592    -0.58600
C1447       C  0.52989442  0.25629429  0.51178886     0.75200
C1448       C  0.51402595  0.14963421  0.56119693     0.77500
Cd1449     Cd  0.53822575  0.23527815  0.57806611     1.37500
O1450       O  0.60045358  0.26742432  0.63051866    -0.57400
O1451       O  0.54618124  0.16255044  0.57177876    -0.56300
C1452       C  0.50177669  0.28288571  0.59904637     0.77500
O1453       O  0.49161748  0.17758283  0.55597399    -0.58600
O1454       O  0.58821002  0.20398962  0.63839836    -0.57100
O1455       O  0.50162637  0.24879301  0.51087102    -0.57100
O1456       O  0.50719782  0.29783807  0.57713941    -0.56200
O1457       O  0.82647428  0.99520529  0.54099146    -0.57400
C1458       C  0.86528708  0.51689606  0.64800292     0.75200
O1459       O  0.76201272  0.04044133  0.58251783    -0.58600
C1460       C  0.79572555  0.00395559  0.50979976     0.75200
C1461       C  0.75645544  0.43578905  0.55983392     0.77500
Cd1462     Cd  0.79986434  0.00588786  0.57278944     1.37500
O1463       O  0.85731702  0.54479341  0.62445710    -0.57400
O1464       O  0.78732156  0.43518065  0.56457185    -0.56300
C1465       C  0.77091268  0.07624597  0.57684672     0.77500
O1466       O  0.74442894  0.47155430  0.55937415    -0.58600
O1467       O  0.84379688  0.48428370  0.63567652    -0.57100
O1468       O  0.76874569  0.01607566  0.50875342    -0.57100
O1469       O  0.78659827  0.07760209  0.56188864    -0.56200
C1470       C  0.56954004  0.07589389  0.84362365     0.86900
C1471       C  0.58911047  0.06309291  0.82799838    -0.53400
C1472       C  0.57674450  0.52457551  0.81232455     0.09800
C1473       C  0.54528617  0.50232790  0.81247013     0.20700
C1474       C  0.02495364  0.07088869  0.81065159    -0.54100
C1475       C  0.01053629  0.53224158  0.79217489     0.09900
C1476       C  0.57538203  0.03923019  0.86860964    -0.53600
C1477       C  0.56244454  0.50183605  0.85291273     0.10500
H1478       H  0.61114431  0.08220534  0.83068668     0.15000
H1479       H  0.53612727  0.47034541  0.79982152     0.00700
H1480       H  0.00918915  0.09917486  0.80042708     0.15300
H1481       H  0.58472908  0.54337173  0.89751852     0.15100
C1482       C  0.96881409  0.52476180  0.75668054     0.30400
C1483       C  0.90060528  0.52074573  0.68762456     0.30400
C1484       C  0.93973862  0.06145849  0.74756943    -0.05800
C1485       C  0.96973804  0.52312441  0.72425374    -0.06600
C1486       C  0.94436007  0.48354694  0.74905005    -0.06500
C1487       C  0.90546469  0.05957749  0.71198303    -0.05800
C1488       C  0.93550048  0.52394736  0.68937762    -0.06600
C1489       C  0.90941136  0.48196110  0.71363670    -0.06500
C1490       C  0.88661991  0.09757599  0.70599737    -0.31900
N1491       N  0.90743344  0.12194321  0.73728018     0.14600
C1492       C  0.93866704  0.09906476  0.76285354    -0.31900
H1493       H  0.95879501  0.10903141  0.79102849     0.16600
C1494       C  0.94180105  0.51357265  0.66477240    -0.30800
N1495       N  0.97820098  0.50208435  0.68397190     0.13400
C1496       C  0.99307384  0.50263825  0.71965338    -0.30800
C1497       C  0.89355235  0.44149079  0.70939229    -0.31100
N1498       N  0.91686379  0.41784371  0.74052127     0.13900
H1499       H  0.86736642  0.42964197  0.68451425     0.16500
C1500       C  0.94828562  0.44326080  0.76482808    -0.31100
H1501       H  0.97291096  0.43303229  0.79143482     0.16500
H1502       H  0.51773708  0.48542762  0.74340330     0.16500
H1503       H  0.86041480  0.10706293  0.68030057     0.16600
H1504       H  0.92080071  0.51122317  0.63524944     0.16500
C1505       C  0.75173070  0.29323213  0.62624238     0.86900
C1506       C  0.73148430  0.29126619  0.64333630    -0.53400
C1507       C  0.74441633  0.25999900  0.66900926     0.09800
C1508       C  0.77838086  0.23591621  0.67730785     0.20700
C1509       C  0.79424732  0.29891430  0.65873372    -0.54100
C1510       C  0.80901385  0.26966156  0.68601897     0.09900
C1511       C  0.74638743  0.24861847  0.61253608    -0.53600
C1512       C  0.76165887  0.21905818  0.63930210     0.10500
H1513       H  0.70723280  0.30954223  0.63436240     0.15000
H1514       H  0.78919663  0.21067449  0.69832117     0.00700
H1515       H  0.81088062  0.32327669  0.65812811     0.15300
H1516       H  0.73412467  0.24099321  0.58436963     0.15100
C1517       C  0.85044863  0.27106782  0.72237335     0.30400
C1518       C  0.91863239  0.26872711  0.79181475     0.30400
C1519       C  0.87897992  0.30943944  0.73247512    -0.05800
C1520       C  0.84954127  0.27367006  0.75445610    -0.06600
C1521       C  0.87460663  0.23008954  0.73211347    -0.06500
C1522       C  0.91384591  0.30814559  0.76803039    -0.05800
C1523       C  0.88332158  0.27000188  0.78917708    -0.06600
C1524       C  0.90954522  0.22972793  0.76730049    -0.06500
C1525       C  0.93204575  0.34821242  0.77468553    -0.31900
N1526       N  0.90974759  0.37402776  0.74483847     0.14600
C1527       C  0.87727330  0.35096191  0.71982905    -0.31900
H1528       H  0.85317481  0.36508085  0.69541879     0.16600
C1529       C  0.87515011  0.26788437  0.81324562    -0.30800
N1530       N  0.83739987  0.27235031  0.79369285     0.13400
C1531       C  0.82241474  0.27980661  0.75842453    -0.30800
C1532       C  0.92477391  0.18971665  0.77266762    -0.31100
N1533       N  0.90075220  0.16486157  0.74214424     0.13900
H1534       H  0.95120995  0.17945195  0.79770169     0.16500
C1535       C  0.86988060  0.18914928  0.71766816    -0.33100
H1536       H  0.84503693  0.17731572  0.69200201     0.16500
H1537       H  0.79433372  0.29074542  0.73743879     0.16500
H1538       H  0.95864127  0.35833756  0.80014958     0.16600
H1539       H  0.89486613  0.26254350  0.84253736     0.16500
O1540       O  0.99172546  0.26443845  0.94559373    -0.57400
C1541       C  0.95315817  0.26785015  0.83204755     0.75200
O1542       O  0.06550236  0.31897685  0.92240755    -0.58600
C1543       C  0.52481465  0.25989737  0.97699552     0.75200
C1544       C  0.06114499  0.21449125  0.90492218     0.77500
Cd1545     Cd  0.01801603  0.27017094  0.91072009     1.37500
O1546       O  0.97445737  0.30011573  0.84784947    -0.57400
O1547       O  0.03223436  0.20147303  0.90146495    -0.56300
C1548       C  0.04477078  0.35076538  0.91149109     0.77500
O1549       O  0.56326264  0.25931051  0.89854701    -0.58600
O1550       O  0.96017583  0.23653888  0.85279723    -0.57100
O1551       O  0.55270055  0.27252629  0.97875729    -0.57100
O1552       O  0.01357936  0.34590808  0.90600744    -0.56200
C1553       C  0.60551384  0.12222746  0.90111912    -0.08800
C1554       C  0.58279021  0.11919829  0.86250674     0.07400
C1555       C  0.06832924  0.15413792  0.84272862    -0.02600
C1556       C  0.06556038  0.18937401  0.85846315    -0.07000
C1557       C  0.07850770  0.18744951  0.89468603     0.06500
C1558       C  0.60475304  0.15806165  0.91756786    -0.02000
Br1559     Br  0.63324183  0.15914943  0.96981237    -0.01700
H1560       H  0.62245426  0.09625897  0.91872364     0.10400
H1561       H  0.05047287  0.21671397  0.84157481     0.08500
Br1562     Br  0.05151551  0.15893024  0.79340415    -0.02200
C1563       C  0.58336262  0.43164708  0.88023780    -0.08800
C1564       C  0.56003185  0.46554432  0.87100256     0.07400
C1565       C  0.03516898  0.46198400  0.87931431    -0.02600
C1566       C  0.03424047  0.42641308  0.89673080    -0.07000
C1567       C  0.05416764  0.39032347  0.90163388     0.06500
C1568       C  0.58213886  0.39640650  0.89782925    -0.02000
Br1569     Br  0.61499032  0.35129945  0.90800027    -0.01700
H1570       H  0.60246561  0.43258151  0.87353629     0.10400
H1571       H  0.01660230  0.42638412  0.90512280     0.08500
Br1572     Br  0.00515341  0.50908436  0.87185875    -0.02200
C1573       C  0.75500502  0.35931062  0.55952479    -0.08800
C1574       C  0.73847628  0.39602419  0.55907441     0.07400
C1575       C  0.71501143  0.39383311  0.56938930    -0.02600
C1576       C  0.71569956  0.35785689  0.58763308    -0.07000
C1577       C  0.74024233  0.32486090  0.59636060     0.06500
C1578       C  0.75808232  0.32477339  0.57971636    -0.02000
Br1579     Br  0.79359032  0.28376000  0.58853262    -0.01700
H1580       H  0.77124324  0.35990296  0.54955316     0.10400
H1581       H  0.69977483  0.35827320  0.59774157     0.08500
Br1582     Br  0.68500282  0.44001487  0.56341121    -0.02200
C1583       C  0.79365144  0.18031881  0.62283548    -0.08800
C1584       C  0.76931738  0.17878433  0.63175433     0.07400
C1585       C  0.74499175  0.14399478  0.62210402    -0.02600
C1586       C  0.74405495  0.11160497  0.60184372    -0.07000
C1587       C  0.76742865  0.11389912  0.59148796     0.06500
C1588       C  0.79282248  0.14864397  0.60251858    -0.02000
Br1589     Br  0.82831375  0.15568231  0.59267897    -0.01700
H1590       H  0.81240274  0.20757433  0.63059324     0.10400
H1591       H  0.72537577  0.08439240  0.59456651     0.08500
Br1592     Br  0.71235357  0.14030445  0.63527441    -0.02200
C1593       C  0.53247412  0.03775827  0.59027696    -0.08800
C1594       C  0.50445787  0.03202189  0.59465329     0.07400
C1595       C  0.47089602  0.05476929  0.57088400    -0.02600
C1596       C  0.47190814  0.09192331  0.55474907    -0.07000
C1597       C  0.50508124  0.10418601  0.55988868     0.06500
C1598       C  0.53307751  0.07382599  0.57298921    -0.02000
Br1599     Br  0.57468010  0.08130297  0.57172399    -0.01700
H1600       H  0.55563188  0.01619634  0.60283408     0.10400
H1601       H  0.44803738  0.11267584  0.54090264     0.08500
Br1602     Br  0.92289879  0.03211776  0.55858441    -0.02200
C1603       C  0.51865205  0.36030837  0.66599089    -0.08800
C1604       C  0.49253665  0.39021899  0.64106771     0.07400
C1605       C  0.46004223  0.37607487  0.60632032    -0.02600
C1606       C  0.46049044  0.33707515  0.59315713    -0.07000
C1607       C  0.49095655  0.31048724  0.61587358     0.06500
C1608       C  0.51716082  0.31965508  0.65369653    -0.02000
Br1609     Br  0.55454211  0.28022449  0.68827062    -0.01700
H1610       H  0.54253049  0.36967368  0.69361211     0.10400
H1611       H  0.43875784  0.32909666  0.56450786     0.08500
Br1612     Br  0.41651203  0.41046788  0.57454312    -0.02200
C1613       C  0.80432315  0.32838348  0.92402202    -0.08800
C1614       C  0.82857703  0.36315260  0.93281175     0.07400
C1615       C  0.85660046  0.35956477  0.92862936    -0.02600
C1616       C  0.85122316  0.32944968  0.90446064    -0.07000
C1617       C  0.81899688  0.30241309  0.88588006     0.06500
C1618       C  0.79963586  0.29723146  0.90076389    -0.02000
Br1619     Br  0.76655427  0.24996033  0.89092563    -0.01700
H1620       H  0.78533617  0.32832488  0.93083679     0.10400
H1621       H  0.87151568  0.32852790  0.89938345     0.08500
Br1622     Br  0.89915422  0.39832429  0.95062028    -0.02200
C1623       C  0.84102006  0.09749832  0.88197962    -0.08800
C1624       C  0.81261118  0.09254882  0.88581209     0.07400
C1625       C  0.78439762  0.12287695  0.87115888    -0.02600
C1626       C  0.78519901  0.15737924  0.85326755    -0.07000
C1627       C  0.81406311  0.16345712  0.85042887     0.06500
C1628       C  0.84245243  0.13366390  0.86514478    -0.02000
Br1629     Br  0.88475625  0.14328172  0.86544565    -0.01700
H1630       H  0.86259153  0.07401104  0.89303706     0.10400
H1631       H  0.76452455  0.18152967  0.84385434     0.08500
Br1632     Br  0.74335851  0.12010939  0.87373879    -0.02200
O1633       O  0.75472804  0.49988882  0.44208567    -0.57400
C1634       C  0.70974069  0.97921102  0.33445545     0.75200
O1635       O  0.81450613  0.51592169  0.39436041    -0.58600
C1636       C  0.78727641  0.49882050  0.47323177     0.75200
C1637       C  0.81441383  0.90257303  0.43152557     0.77500
Cd1638     Cd  0.77992005  0.98075674  0.41069679     1.37500
O1639       O  0.71071153  0.97815319  0.36230299    -0.57400
O1640       O  0.78188657  0.90627276  0.42286721    -0.56300
C1641       C  0.80638336  0.55144451  0.39955766     0.77500
O1642       O  0.83055021  0.93576405  0.43118177    -0.58600
O1643       O  0.74157703  0.97862934  0.34143987    -0.57100
O1644       O  0.81495253  0.49045518  0.47405396    -0.57100
O1645       O  0.79128724  0.55223160  0.41500867    -0.56200
C1646       C  0.81084327  0.77456322  0.35669968     0.86900
C1647       C  0.82548873  0.79185028  0.33641989    -0.53400
C1648       C  0.81918425  0.76489919  0.31069417     0.09800
C1649       C  0.79673539  0.72368295  0.30620199     0.20700
C1650       C  0.76813500  0.76505725  0.32563789    -0.54100
C1651       C  0.75964070  0.73915165  0.29789640     0.09900
C1652       C  0.82911867  0.73236922  0.37126997    -0.53600
C1653       C  0.82040388  0.70478339  0.34506306     0.10500
H1654       H  0.84124679  0.82145994  0.34268484     0.15000
H1655       H  0.79315733  0.69941137  0.28747687     0.00700
H1656       H  0.74653413  0.77834804  0.32579050     0.15300
H1657       H  0.84232628  0.72250574  0.39933934     0.15100
C1658       C  0.71882511  0.73511213  0.26031419     0.30400
C1659       C  0.64871762  0.73391336  0.19220031     0.30400
C1660       C  0.69253007  0.77398719  0.25048328    -0.05800
C1661       C  0.71789784  0.73413430  0.22667602    -0.06600
C1662       C  0.69294774  0.69511089  0.25209333    -0.06500
C1663       C  0.65676276  0.77239480  0.21620526    -0.05800
C1664       C  0.68273796  0.73605051  0.19249675    -0.06600
C1665       C  0.65720603  0.69475565  0.21736220    -0.06500
C1666       C  0.64032002  0.81174131  0.20978832    -0.31900
N1667       N  0.66440204  0.83763767  0.23918367     0.14600
C1668       C  0.69667156  0.81555684  0.26326481    -0.31900
H1669       H  0.72220557  0.82998890  0.28710277     0.16600
C1670       C  0.68874702  0.74511297  0.16722410    -0.30800
N1671       N  0.72655207  0.74518388  0.18506013     0.13400
C1672       C  0.74365561  0.73501117  0.22023992    -0.30800
C1673       C  0.64111980  0.65415236  0.21225541    -0.31100
N1674       N  0.66543778  0.62935024  0.24220797     0.13900
H1675       H  0.61438265  0.64296901  0.18754317     0.16500
C1676       C  0.69738171  0.65379892  0.26600208    -0.31100
H1677       H  0.72284710  0.64140037  0.29018790     0.16500
H1678       H  0.77264038  0.72798999  0.23892815     0.16500
H1679       H  0.61362391  0.82129639  0.18468289     0.16600
H1680       H  0.66749170  0.75243307  0.13847883     0.16500
C1681       C  0.51198168  0.50524396  0.12648897     0.86900
C1682       C  0.49344382  0.52142738  0.14300882    -0.53400
C1683       C  0.49976803  0.99570429  0.17120655     0.09800
C1684       C  0.52696198  0.95899308  0.18249689     0.20700
C1685       C  0.55428369  0.50332206  0.15941826    -0.54100
C1686       C  0.56332453  0.97953452  0.18962075     0.09900
C1687       C  0.49979792  0.95733397  0.11785741    -0.53600
C1688       C  0.50616349  0.93397834  0.14613063     0.10500
H1689       H  0.47675633  0.54964224  0.13378866     0.15000
H1690       H  0.53256702  0.93972444  0.20551979     0.00700
H1691       H  0.57616165  0.51890899  0.15978763     0.15300
H1692       H  0.48699988  0.94430218  0.09090619     0.15100
C1693       C  0.60398256  0.98080227  0.22655664     0.30400
C1694       C  0.67263752  0.98058048  0.29533134     0.30400
C1695       C  0.63026030  0.52065184  0.23565743    -0.05800
C1696       C  0.60307549  0.98047209  0.25864632    -0.06600
C1697       C  0.62954956  0.94253389  0.23530942    -0.06500
C1698       C  0.66533095  0.51974306  0.27066471    -0.05800
C1699       C  0.63742352  0.97843702  0.29380297    -0.06600
C1700       C  0.66459222  0.94289611  0.27024880    -0.06500
C1701       C  0.68272506  0.55986586  0.27640955    -0.31900
N1702       N  0.65927280  0.58531096  0.24646135     0.14600
C1703       C  0.62703452  0.56169970  0.22204084    -0.31900
H1704       H  0.60201646  0.57435642  0.19710918     0.16600
C1705       C  0.63058775  0.99127276  0.31765916    -0.30800
N1706       N  0.59396180  0.00205288  0.29777544     0.13400
C1707       C  0.57971579  0.00132843  0.26243414    -0.30800
C1708       C  0.68128134  0.90441556  0.27478633    -0.31100
N1709       N  0.65788266  0.88035176  0.24376256     0.13900
H1710       H  0.70777659  0.89411831  0.29973208     0.16500
C1711       C  0.62602379  0.90333601  0.21961448    -0.31100
H1712       H  0.60138211  0.89202141  0.19315350     0.16500
H1713       H  0.55796397  0.02183497  0.24168485     0.16500
H1714       H  0.70980063  0.56997890  0.30127121     0.16600
H1715       H  0.65113431  0.99664150  0.34686042     0.16500
O1716       O  0.56362709  0.75292155  0.04440333    -0.57400
C1717       C  0.61172987  0.73369994  0.15343097     0.75200
O1718       O  0.50318789  0.74176200  0.10124765    -0.58600
C1719       C  0.53137914  0.75481195  0.01313422     0.75200
C1720       C  0.51582567  0.64719259  0.06157983     0.77500
Cd1721     Cd  0.54006693  0.73290031  0.07915991     1.37500
O1722       O  0.60308410  0.76375087  0.13116215    -0.57400
O1723       O  0.54899948  0.65942806  0.07466666    -0.56300
C1724       C  0.50342963  0.78160886  0.09901034     0.77500
O1725       O  0.49300441  0.67565122  0.05450886    -0.58600
O1726       O  0.58828220  0.70292739  0.14085695    -0.57100
O1727       O  0.50311564  0.74972902  0.01255269    -0.57100
O1728       O  0.51674173  0.79809955  0.08405500    -0.56200
O1729       O  0.82603232  0.49494703  0.04025687    -0.57400
C1730       C  0.86645877  0.01549241  0.15004275     0.75200
O1731       O  0.76216932  0.53898603  0.08365322    -0.58600
C1732       C  0.79569307  0.50509731  0.00926927     0.75200
C1733       C  0.75831033  0.93263023  0.06061322     0.77500
Cd1734     Cd  0.80008209  0.50660314  0.07259382     1.37500
O1735       O  0.85799048  0.04368496  0.12656882    -0.57400
O1736       O  0.79028004  0.93164504  0.06754304    -0.56300
C1737       C  0.76907735  0.57506921  0.07646714     0.77500
O1738       O  0.74543798  0.96861874  0.05806508    -0.58600
O1739       O  0.84614750  0.98195692  0.13745984    -0.57100
O1740       O  0.76930656  0.51871316  0.00855955    -0.57100
O1741       O  0.78318301  0.57708382  0.06000306    -0.56200
C1742       C  0.56890772  0.57284540  0.34317411     0.86900
C1743       C  0.58869331  0.55904765  0.32802631    -0.53400
C1744       C  0.57626563  0.02087257  0.31141652     0.09800
C1745       C  0.54411478  0.99896579  0.31066443     0.20700
C1746       C  0.02598101  0.56983353  0.31193968    -0.54100
C1747       C  0.01142437  0.03082202  0.29484438     0.09900
C1748       C  0.57335555  0.53624622  0.36760182    -0.53600
C1749       C  0.56099473  0.99750463  0.35106519     0.10500
H1750       H  0.61133610  0.57737492  0.33120162     0.15000
H1751       H  0.53451824  0.96730179  0.29743781     0.00700
H1752       H  0.01032930  0.59815200  0.30258724     0.15300
H1753       H  0.58334494  0.03796043  0.39633289     0.15100
C1754       C  0.96956974  0.02404933  0.25911058     0.30400
C1755       C  0.90141807  0.01991354  0.18981664     0.30400
C1756       C  0.94083717  0.56097622  0.24799720    -0.05800
C1757       C  0.97054290  0.02276088  0.22675290    -0.06600
C1758       C  0.94504662  0.98291036  0.25133293    -0.06500
C1759       C  0.90662525  0.55943819  0.21234461    -0.05800
C1760       C  0.93644465  0.02350633  0.19184933    -0.06600
C1761       C  0.91018449  0.98125660  0.21588267    -0.06500
C1762       C  0.88807605  0.59759991  0.20652979    -0.31900
N1763       N  0.90891751  0.62157468  0.23802774     0.14600
C1764       C  0.93982998  0.59833748  0.26353870    -0.31900
H1765       H  0.95958885  0.60782984  0.29186730     0.16600
C1766       C  0.94319819  0.01508558  0.16724984    -0.30800
N1767       N  0.97983536  0.00450014  0.18657729     0.13400
C1768       C  0.99431036  0.00369506  0.22216824    -0.30800
C1769       C  0.89418817  0.94091609  0.21175752    -0.31100
N1770       N  0.91746274  0.91736252  0.24293912     0.13900
H1771       H  0.86795850  0.92904747  0.18693626     0.16500
C1772       C  0.94888783  0.94275600  0.26720876    -0.31100
H1773       H  0.97347781  0.93256559  0.29384596     0.16500
H1774       H  0.51724133  0.98366545  0.24179824     0.16500
H1775       H  0.86206583  0.60746298  0.18082436     0.16600
H1776       H  0.92244385  0.01331851  0.13767204     0.16500
C1777       C  0.75359015  0.79156518  0.12826270     0.86900
C1778       C  0.73356890  0.78995084  0.14564006    -0.53400
C1779       C  0.74652925  0.75870584  0.17140842     0.09800
C1780       C  0.78030512  0.73448646  0.17955628     0.20700
C1781       C  0.79617234  0.79715762  0.16054453    -0.54100
C1782       C  0.81082623  0.76823561  0.18805336     0.09900
C1783       C  0.74792420  0.74683363  0.11468813    -0.53600
C1784       C  0.76327158  0.71738942  0.14153155     0.10500
H1785       H  0.70927798  0.80822003  0.13656738     0.15000
H1786       H  0.79121283  0.70934915  0.20066867     0.00700
H1787       H  0.81296302  0.82121838  0.15976245     0.15300
H1788       H  0.73511829  0.73895143  0.08642805     0.15100
C1789       C  0.85206445  0.76992588  0.22446932     0.30400
C1790       C  0.92024289  0.76745929  0.29373800     0.30400
C1791       C  0.88025120  0.80863407  0.23470440    -0.05800
C1792       C  0.85116697  0.77178145  0.25663407    -0.06600
C1793       C  0.87643363  0.72939391  0.23382784    -0.06500
C1794       C  0.91516333  0.80732091  0.27019141    -0.05800
C1795       C  0.88501348  0.76806236  0.29126908    -0.06600
C1796       C  0.91138587  0.72888169  0.26894965    -0.06500
C1797       C  0.93307266  0.84759619  0.27695228    -0.31900
N1798       N  0.91048906  0.87350586  0.24723537     0.14600
C1799       C  0.87810302  0.85032112  0.22222507    -0.31900
H1800       H  0.85372146  0.86434854  0.19793842     0.16600
C1801       C  0.87709476  0.76589706  0.31554645    -0.30800
N1802       N  0.83939119  0.77041067  0.29623413     0.13400
C1803       C  0.82422005  0.77790036  0.26089161    -0.30800
C1804       C  0.92664070  0.68898613  0.27394153    -0.31100
N1805       N  0.90252224  0.66443491  0.24321875     0.13900
H1806       H  0.95307054  0.67853259  0.29887118     0.16500
C1807       C  0.87166350  0.68877285  0.21900425    -0.33100
H1808       H  0.84673472  0.67709915  0.19334093     0.16500
H1809       H  0.79616810  0.78903486  0.24007871     0.16500
H1810       H  0.95969482  0.85774930  0.30237670     0.16600
H1811       H  0.89698478  0.76068928  0.34484875     0.16500
O1812       O  0.99121802  0.76170755  0.44586032    -0.57400
C1813       C  0.95466660  0.76644773  0.33389435     0.75200
O1814       O  0.06859050  0.81956203  0.43010095    -0.58600
C1815       C  0.52682661  0.75898921  0.47778728     0.75200
C1816       C  0.06345690  0.71492896  0.40684305     0.77500
Cd1817     Cd  0.01908672  0.76937859  0.41229462     1.37500
O1818       O  0.97587893  0.79873167  0.34964046    -0.57400
O1819       O  0.04396188  0.70075615  0.41618797    -0.56300
C1820       C  0.04677914  0.85060723  0.41688378     0.77500
O1821       O  0.56153996  0.75597478  0.39653229    -0.58600
O1822       O  0.96156416  0.73515808  0.35464876    -0.57100
O1823       O  0.55472740  0.76959152  0.47892748    -0.57100
O1824       O  0.01413943  0.84455907  0.40810294    -0.56200
C1825       C  0.60416478  0.61861564  0.40084698    -0.08800
C1826       C  0.58290755  0.61584842  0.36240212     0.07400
C1827       C  0.07029354  0.65299578  0.34493656    -0.02600
C1828       C  0.06854812  0.68865514  0.36100933    -0.07000
C1829       C  0.08028731  0.68642853  0.39681401     0.06500
C1830       C  0.60217524  0.65417352  0.41666469    -0.02000
Br1831     Br  0.62773789  0.65448912  0.46844598    -0.01700
H1832       H  0.62057953  0.59254348  0.41867051     0.10400
H1833       H  0.05457611  0.71650418  0.34436769     0.08500
Br1834     Br  0.05287006  0.65798473  0.29540389    -0.02200
C1835       C  0.58665513  0.93040672  0.38364572    -0.08800
C1836       C  0.55907437  0.96088363  0.36913517     0.07400
C1837       C  0.03300623  0.95900236  0.37873623    -0.02600
C1838       C  0.03289251  0.92476067  0.39777730    -0.07000
C1839       C  0.05646795  0.89049745  0.40756443     0.06500
C1840       C  0.58693048  0.89611815  0.40303100    -0.02000
Br1841     Br  0.62595123  0.85579155  0.42107045    -0.01700
H1842       H  0.60794701  0.93331978  0.37977119     0.10400
H1843       H  0.01268096  0.92390274  0.40308969     0.08500
Br1844     Br  0.99745128  0.00280377  0.36360128    -0.02200
C1845       C  0.75590538  0.85611246  0.06014034    -0.08800
C1846       C  0.73984219  0.89319542  0.05974177     0.07400
C1847       C  0.71687048  0.89175559  0.07061986    -0.02600
C1848       C  0.71799714  0.85639827  0.08969764    -0.07000
C1849       C  0.74199552  0.82290310  0.09811437     0.06500
C1850       C  0.75905461  0.82191277  0.08070764    -0.02000
Br1851     Br  0.79336478  0.77984034  0.08852472    -0.01700
H1852       H  0.77174194  0.85619544  0.04974541     0.10400
H1853       H  0.70273631  0.85756581  0.10048167     0.08500
Br1854     Br  0.68687200  0.93824986  0.06404933    -0.02200
C1855       C  0.79410428  0.67776728  0.12441683    -0.08800
C1856       C  0.77006975  0.67672087  0.13367775     0.07400
C1857       C  0.74467758  0.64275477  0.12317596    -0.02600
C1858       C  0.74294636  0.61040863  0.10233934    -0.07000
C1859       C  0.76594453  0.61250938  0.09155063     0.06500
C1860       C  0.79185166  0.64673121  0.10285008    -0.02000
Br1861     Br  0.82604610  0.65401349  0.09141408    -0.01700
H1862       H  0.81331282  0.70461029  0.13235561     0.10400
H1863       H  0.72376801  0.58360054  0.09466776     0.08500
Br1864     Br  0.71117340  0.64070286  0.13535705    -0.02200
C1865       C  0.53161213  0.53493469  0.08941022    -0.08800
C1866       C  0.50368279  0.53049936  0.09404712     0.07400
C1867       C  0.47073217  0.55440213  0.07069282    -0.02600
C1868       C  0.47244777  0.59096906  0.05444046    -0.07000
C1869       C  0.50578297  0.60197997  0.05951621     0.06500
C1870       C  0.53295812  0.57072437  0.07227050    -0.02000
Br1871     Br  0.57417635  0.57671977  0.07033938    -0.01700
H1872       H  0.55425576  0.51266794  0.10181420     0.10400
H1873       H  0.44915231  0.61251830  0.04089923     0.08500
Br1874     Br  0.92314144  0.53955636  0.05990032    -0.02200
C1875       C  0.52103529  0.85905775  0.16552674    -0.08800
C1876       C  0.49454418  0.88872183  0.14065121     0.07400
C1877       C  0.46176203  0.87438047  0.10617516    -0.02600
C1878       C  0.46184021  0.83510308  0.09313654    -0.07000
C1879       C  0.49232249  0.80856640  0.11579599     0.06500
C1880       C  0.51911430  0.81818634  0.15338114    -0.02000
Br1881     Br  0.55611050  0.77822128  0.18751205    -0.01700
H1882       H  0.54520804  0.86863290  0.19294984     0.10400
H1883       H  0.43987566  0.82692184  0.06458299     0.08500
Br1884     Br  0.41823764  0.90883060  0.07463691    -0.02200
C1885       C  0.80555392  0.82608123  0.42671160    -0.08800
C1886       C  0.82978262  0.86096762  0.43577912     0.07400
C1887       C  0.85792083  0.85754308  0.43172222    -0.02600
C1888       C  0.85250772  0.82778978  0.40722486    -0.07000
C1889       C  0.82021580  0.80075737  0.38827408     0.06500
C1890       C  0.80061987  0.79542139  0.40294319    -0.02000
Br1891     Br  0.76629510  0.74896462  0.39167105    -0.01700
H1892       H  0.78649452  0.82585692  0.43344498     0.10400
H1893       H  0.87291871  0.82708261  0.40229562     0.08500
Br1894     Br  0.90068354  0.89614220  0.45429773    -0.02200
C1895       C  0.84002265  0.59500420  0.38278320    -0.08800
C1896       C  0.81030929  0.58984915  0.38475651     0.07400
C1897       C  0.78207023  0.62027262  0.36930311    -0.02600
C1898       C  0.78453465  0.65548277  0.35313241    -0.07000
C1899       C  0.81451534  0.66162877  0.35198126     0.06500
C1900       C  0.84271647  0.63153168  0.36710329    -0.02000
Br1901     Br  0.88635316  0.64122920  0.36955125    -0.01700
H1902       H  0.86162084  0.57144432  0.39445433     0.10400
H1903       H  0.76395302  0.67983194  0.34341495     0.08500
Br1904     Br  0.73878292  0.61674063  0.36844244    -0.02200
O1905       O  0.75850710  0.50536241  0.94424454    -0.57400
C1906       C  0.71041403  0.98124637  0.83414252     0.75200
O1907       O  0.81617141  0.51737982  0.89513615    -0.58600
C1908       C  0.79031229  0.49947979  0.97534420     0.75200
C1909       C  0.81381441  0.90373861  0.92957974     0.77500
Cd1910     Cd  0.78052623  0.98233847  0.90994390     1.37500
O1911       O  0.71143009  0.97958216  0.86199961    -0.57400
O1912       O  0.78140603  0.90798018  0.92101848    -0.56300
C1913       C  0.80897823  0.55305919  0.90101694     0.77500
O1914       O  0.83038191  0.93662535  0.92940713    -0.58600
O1915       O  0.74218834  0.98159917  0.84095098    -0.57100
O1916       O  0.81684769  0.48684841  0.97581356    -0.57100
O1917       O  0.79476076  0.55429447  0.91728978    -0.56200
C1918       C  0.81030908  0.77475721  0.85589942     0.86900
C1919       C  0.82439023  0.79248878  0.83521637    -0.53400
C1920       C  0.81821608  0.76554955  0.80953966     0.09800
C1921       C  0.79605977  0.72416116  0.80527719     0.20700
C1922       C  0.76759242  0.76482818  0.82525686    -0.54100
C1923       C  0.75898228  0.73922965  0.79734553     0.09900
C1924       C  0.82907189  0.73283629  0.87043842    -0.53600
C1925       C  0.82029014  0.70538577  0.84415241     0.10500
H1926       H  0.84006678  0.82217001  0.84150065     0.15000
H1927       H  0.79243298  0.69980112  0.78658328     0.00700
H1928       H  0.74605515  0.77774234  0.82572234     0.15300
H1929       H  0.84273635  0.72298134  0.89860500     0.15100
C1930       C  0.71811798  0.73573033  0.75976122     0.30400
C1931       C  0.64822656  0.73499914  0.69141852     0.30400
C1932       C  0.69184367  0.77458645  0.75017664    -0.05800
C1933       C  0.71739294  0.73533280  0.72623500    -0.06600
C1934       C  0.69216978  0.69568578  0.75110488    -0.06500
C1935       C  0.65621137  0.77337472  0.71567526    -0.05800
C1936       C  0.68235201  0.73746432  0.69199993    -0.06600
C1937       C  0.65658789  0.69538762  0.71626252    -0.06500
C1938       C  0.64035703  0.81319487  0.70927085    -0.31900
N1939       N  0.66432596  0.83875773  0.73900216     0.14600
C1940       C  0.69620234  0.81610666  0.76325430    -0.31900
H1941       H  0.72169422  0.83009448  0.78745704     0.16600
C1942       C  0.68848487  0.74660617  0.66685701    -0.30800
N1943       N  0.72629365  0.74659371  0.68483806     0.13400
C1944       C  0.74324745  0.73630182  0.71993296    -0.30800
C1945       C  0.64035464  0.65475587  0.71124009    -0.31100
N1946       N  0.66446719  0.63011020  0.74144723     0.13900
H1947       H  0.61359560  0.64351964  0.68655721     0.16500
C1948       C  0.69631927  0.65463367  0.76529591    -0.31100
H1949       H  0.72148026  0.64249190  0.78989599     0.16500
H1950       H  0.77216686  0.72913994  0.73855495     0.16500
H1951       H  0.61417468  0.82331557  0.68391394     0.16600
H1952       H  0.66731876  0.75397252  0.63810423     0.16500
C1953       C  0.51211603  0.50450257  0.62822217     0.86900
C1954       C  0.49399914  0.52152696  0.64490065    -0.53400
C1955       C  0.50082343  0.99820351  0.67154481     0.09800
C1956       C  0.52794387  0.96163699  0.68232883     0.20700
C1957       C  0.55438436  0.50216001  0.66101608    -0.54100
C1958       C  0.56419704  0.98237548  0.68940690     0.09900
C1959       C  0.50037475  0.96091993  0.61758234    -0.53600
C1960       C  0.50685108  0.93716984  0.64571211     0.10500
H1961       H  0.47745307  0.54988398  0.63550946     0.15000
H1962       H  0.53370193  0.94204299  0.70526915     0.00700
H1963       H  0.57640286  0.51743476  0.66145524     0.15300
H1964       H  0.48731539  0.94826536  0.59045271     0.15100
C1965       C  0.60491095  0.98317490  0.72631476     0.30400
C1966       C  0.67336292  0.98244061  0.79516591     0.30400
C1967       C  0.62957818  0.52165427  0.73672073    -0.05800
C1968       C  0.60388980  0.98386740  0.75833775    -0.06600
C1969       C  0.63000736  0.94421098  0.73527710    -0.06500
C1970       C  0.66483257  0.52124919  0.77157286    -0.05800
C1971       C  0.63811294  0.98136687  0.79353573    -0.06600
C1972       C  0.66498289  0.94434660  0.77025135    -0.06500
C1973       C  0.68205730  0.56121684  0.77643980    -0.31900
N1974       N  0.65828143  0.58626322  0.74626939     0.14600
C1975       C  0.62601507  0.56241372  0.72239483    -0.31900
H1976       H  0.60086175  0.57466304  0.69730572     0.16600
C1977       C  0.63141018  0.99469366  0.81737038    -0.30800
N1978       N  0.59500175  0.00634769  0.79741046     0.13400
C1979       C  0.58082259  0.00561334  0.76207288    -0.30800
C1980       C  0.68147340  0.90563528  0.77478463    -0.31100
N1981       N  0.65803793  0.88162047  0.74369744     0.13900
H1982       H  0.70793806  0.89524707  0.79971937     0.16500
C1983       C  0.62636928  0.90493869  0.71952908    -0.31100
H1984       H  0.60179924  0.89387185  0.69292567     0.16500
H1985       H  0.55876626  0.02576198  0.74113708     0.16500
H1986       H  0.70945248  0.57139067  0.80077943     0.16600
H1987       H  0.65193646  0.99955429  0.84664565     0.16500
O1988       O  0.56314603  0.75535012  0.54338685    -0.57400
C1989       C  0.61148937  0.73471536  0.65242046     0.75200
O1990       O  0.50815549  0.74515205  0.60508512    -0.58600
C1991       C  0.53109332  0.75310488  0.51179883     0.75200
C1992       C  0.51567106  0.64705207  0.56250510     0.77500
Cd1993     Cd  0.53970432  0.73324377  0.57812045     1.37500
O1994       O  0.60220530  0.76544331  0.63054188    -0.57400
O1995       O  0.54800886  0.65961220  0.57331106    -0.56300
C1996       C  0.50319806  0.78399396  0.59723594     0.77500
O1997       O  0.49316709  0.67542015  0.55641102    -0.58600
O1998       O  0.58901388  0.70302052  0.63921030    -0.57100
O1999       O  0.50301711  0.74461388  0.51097015    -0.57100
O2000       O  0.51092311  0.79816691  0.57688144    -0.56200
O2001       O  0.82381905  0.49794682  0.53822089    -0.57400
C2002       C  0.86547529  0.01566246  0.64978866     0.75200
O2003       O  0.75755526  0.54333453  0.57692122    -0.58600
C2004       C  0.79255263  0.50507091  0.50700868     0.75200
C2005       C  0.75656950  0.93318277  0.55946407     0.77500
Cd2006     Cd  0.79852245  0.50858272  0.57107762     1.37500
O2007       O  0.85745190  0.04335189  0.62608807    -0.57400
O2008       O  0.78929933  0.93205245  0.56809079    -0.56300
C2009       C  0.76849938  0.57913873  0.57357076     0.77500
O2010       O  0.74313310  0.96920153  0.55557379    -0.58600
O2011       O  0.84464004  0.98250371  0.63755817    -0.57100
O2012       O  0.76541981  0.51621500  0.50609914    -0.57100
O2013       O  0.78702346  0.58048570  0.56151671    -0.56200
C2014       C  0.56942539  0.57634417  0.84462552     0.86900
C2015       C  0.58893829  0.56294035  0.82909267    -0.53400
C2016       C  0.57719413  0.02479436  0.81108338     0.09800
C2017       C  0.54593742  0.00191023  0.81126623     0.20700
C2018       C  0.02500036  0.57091179  0.80966288    -0.54100
C2019       C  0.01043943  0.03198225  0.79388863     0.09900
C2020       C  0.57499168  0.53994734  0.86972262    -0.53600
C2021       C  0.56338588  0.00106898  0.85184065     0.10500
H2022       H  0.61110226  0.58168651  0.83172234     0.15000
H2023       H  0.53700167  0.96995750  0.79855897     0.00700
H2024       H  0.00943515  0.59927809  0.80001418     0.15300
H2025       H  0.58490461  0.04250015  0.89634531     0.15100
C2026       C  0.96861035  0.02477094  0.75850213     0.30400
C2027       C  0.90046912  0.02019967  0.68945150     0.30400
C2028       C  0.94030826  0.56168810  0.74580846    -0.05800
C2029       C  0.96953051  0.02381374  0.72613208    -0.06600
C2030       C  0.94451627  0.98325112  0.75088679    -0.06500
C2031       C  0.90616546  0.56029758  0.71021343    -0.05800
C2032       C  0.93540646  0.02423416  0.69126512    -0.06600
C2033       C  0.90960705  0.98142674  0.71551282    -0.06500
C2034       C  0.88778909  0.59860096  0.70447392    -0.31900
N2035       N  0.90869728  0.62240988  0.73607640     0.14600
C2036       C  0.93938151  0.59890154  0.76152065    -0.31900
H2037       H  0.95891389  0.60796129  0.78997385     0.16600
C2038       C  0.94219383  0.01502950  0.66675544    -0.30800
N2039       N  0.97891177  0.00460296  0.68617330     0.13400
C2040       C  0.99341313  0.00460072  0.72175420    -0.30800
C2041       C  0.89379986  0.94101140  0.71147697    -0.31100
N2042       N  0.91719021  0.91754731  0.74267916     0.13900
H2043       H  0.86755211  0.92907356  0.68672218     0.16500
C2044       C  0.94855414  0.94308111  0.76687110    -0.31100
H2045       H  0.97316251  0.93303899  0.79356311     0.16500
H2046       H  0.51924081  0.98604421  0.74251876     0.16500
H2047       H  0.86174859  0.60854632  0.67882975     0.16600
H2048       H  0.92137394  0.01247824  0.63722808     0.16500
C2049       C  0.75307920  0.79287171  0.62802364     0.86900
C2050       C  0.73358967  0.79160732  0.64587611    -0.53400
C2051       C  0.74639942  0.76012251  0.67137383     0.09800
C2052       C  0.77971845  0.73539545  0.67900041     0.20700
C2053       C  0.79586103  0.79784800  0.66002736    -0.54100
C2054       C  0.81047856  0.76875306  0.68745110     0.09900
C2055       C  0.74664883  0.74819938  0.61408560    -0.53600
C2056       C  0.76207205  0.71850374  0.64076209     0.10500
H2057       H  0.70957359  0.81015364  0.63720521     0.15000
H2058       H  0.79047744  0.71009721  0.69996164     0.00700
H2059       H  0.81274862  0.82167606  0.65914974     0.15300
H2060       H  0.73361110  0.74055328  0.58572305     0.15100
C2061       C  0.85178923  0.77014244  0.72392202     0.30400
C2062       C  0.92004278  0.76732347  0.79330861     0.30400
C2063       C  0.87989614  0.80895105  0.73448276    -0.05800
C2064       C  0.85089702  0.77138991  0.75611102    -0.06600
C2065       C  0.87624976  0.72982554  0.73297413    -0.06500
C2066       C  0.91478293  0.80751332  0.76995444    -0.05800
C2067       C  0.88471408  0.76742504  0.79081008    -0.06600
C2068       C  0.91121950  0.72907559  0.76813881    -0.06500
C2069       C  0.93275795  0.84777670  0.77675128    -0.31900
N2070       N  0.91018879  0.87373708  0.74706478     0.14600
C2071       C  0.87778584  0.85059987  0.72204168    -0.31900
H2072       H  0.85343504  0.86459491  0.69772024     0.16600
C2073       C  0.87658790  0.76562841  0.81497120    -0.30800
N2074       N  0.83889294  0.77078265  0.79552493     0.13400
C2075       C  0.82399570  0.77826527  0.76027819    -0.30800
C2076       C  0.92650301  0.68931049  0.77263969    -0.31100
N2077       N  0.90240292  0.66514462  0.74162410     0.13900
H2078       H  0.95292502  0.67864410  0.79745034     0.16500
C2079       C  0.87156182  0.68958440  0.71764259    -0.33100
H2080       H  0.84670437  0.67820700  0.69176814     0.16500
H2081       H  0.79615111  0.78992940  0.73947572     0.16500
H2082       H  0.95947210  0.85785244  0.80211646     0.16600
H2083       H  0.89635806  0.76047223  0.84428740     0.16500
O2084       O  0.99334262  0.75979466  0.94505524    -0.57400
C2085       C  0.95490555  0.76661473  0.83347503     0.75200
O2086       O  0.06982285  0.82139746  0.92879535    -0.58600
C2087       C  0.52720709  0.76137060  0.97923586     0.75200
C2088       C  0.06659428  0.71744870  0.90661746     0.77500
Cd2089     Cd  0.02100258  0.77064684  0.91174321     1.37500
O2090       O  0.97532767  0.79945577  0.84913982    -0.57400
O2091       O  0.05022274  0.70354135  0.91938464    -0.56300
C2092       C  0.04813786  0.85245770  0.91672678     0.77500
O2093       O  0.56487788  0.75989465  0.90094482    -0.58600
O2094       O  0.96323586  0.73495676  0.85431462    -0.57100
O2095       O  0.55571473  0.76793773  0.98052044    -0.57100
O2096       O  0.01573950  0.84591037  0.90837650    -0.56200
C2097       C  0.60541227  0.62281539  0.90191064    -0.08800
C2098       C  0.58293536  0.61967117  0.86333483     0.07400
C2099       C  0.06976596  0.65443791  0.84291136    -0.02600
C2100       C  0.06970655  0.69055651  0.85966317    -0.07000
C2101       C  0.08284599  0.68875080  0.89597739     0.06500
C2102       C  0.60384290  0.65836291  0.91803927    -0.02000
Br2103     Br  0.63060214  0.65900541  0.97003611    -0.01700
H2104       H  0.62240914  0.59695489  0.91965267     0.10400
H2105       H  0.05587369  0.71855151  0.84320165     0.08500
Br2106     Br  0.05103338  0.65940645  0.79295753    -0.02200
C2107       C  0.58799742  0.93306708  0.88364829    -0.08800
C2108       C  0.56150690  0.96469815  0.87028515     0.07400
C2109       C  0.03315161  0.96125749  0.87925235    -0.02600
C2110       C  0.03359445  0.92675778  0.89839693    -0.07000
C2111       C  0.05763688  0.89299121  0.90810283     0.06500
C2112       C  0.58752444  0.89849430  0.90243423    -0.02000
Br2113     Br  0.62487758  0.85644688  0.91895075    -0.01700
H2114       H  0.60893209  0.93523847  0.87927273     0.10400
H2115       H  0.01340166  0.92522234  0.90373094     0.08500
Br2116     Br  0.99725648  0.00457049  0.86437405    -0.02200
C2117       C  0.75370038  0.85680751  0.55854856    -0.08800
C2118       C  0.73779479  0.89393487  0.55829058     0.07400
C2119       C  0.71551686  0.89276584  0.56993260    -0.02600
C2120       C  0.71719274  0.85764999  0.58949652    -0.07000
C2121       C  0.74122839  0.82423280  0.59781626     0.06500
C2122       C  0.75763578  0.82299253  0.57980646    -0.02000
Br2123     Br  0.79199550  0.78115231  0.58750834    -0.01700
H2124       H  0.76910683  0.85680092  0.54769837     0.10400
H2125       H  0.70241445  0.85905430  0.60076288     0.08500
Br2126     Br  0.68649843  0.93974149  0.56448424    -0.02200
C2127       C  0.79307705  0.68074958  0.62289976    -0.08800
C2128       C  0.76944437  0.67836731  0.63263707     0.07400
C2129       C  0.74427578  0.64409822  0.62167221    -0.02600
C2130       C  0.74204478  0.61309593  0.59961894    -0.07000
C2131       C  0.76470856  0.61644470  0.58843396     0.06500
C2132       C  0.79019181  0.65119958  0.59996148    -0.02000
Br2133     Br  0.82244291  0.66173212  0.58652526    -0.01700
H2134       H  0.81221782  0.70776785  0.63135337     0.10400
H2135       H  0.72310846  0.58599893  0.59181017     0.08500
Br2136     Br  0.71254079  0.63920006  0.63586424    -0.02200
C2137       C  0.53240528  0.53463720  0.59176928    -0.08800
C2138       C  0.50408410  0.52961482  0.59581167     0.07400
C2139       C  0.47115083  0.55340717  0.57233763    -0.02600
C2140       C  0.47297719  0.59030164  0.55642682    -0.07000
C2141       C  0.50644263  0.60171622  0.56180885     0.06500
C2142       C  0.53404358  0.57075575  0.57513807    -0.02000
Br2143     Br  0.57640515  0.57722512  0.57495433    -0.01700
H2144       H  0.55511297  0.51245832  0.60421076     0.10400
H2145       H  0.44948296  0.61158972  0.54258811     0.08500
Br2146     Br  0.92094423  0.53516405  0.55773298    -0.02200
C2147       C  0.52121340  0.86218543  0.66439926    -0.08800
C2148       C  0.49488985  0.89206688  0.63981871     0.07400
C2149       C  0.46228024  0.87820834  0.60508974    -0.02600
C2150       C  0.46273249  0.83959107  0.59141728    -0.07000
C2151       C  0.49307465  0.81276127  0.61396598     0.06500
C2152       C  0.51953104  0.82172357  0.65178809    -0.02000
Br2153     Br  0.55661840  0.78192478  0.68601069    -0.01700
H2154       H  0.54519679  0.87138466  0.69202759     0.10400
H2155       H  0.44082512  0.83180573  0.56276416     0.08500
Br2156     Br  0.41847125  0.91254715  0.57449044    -0.02200
C2157       C  0.80426947  0.82717923  0.92480712    -0.08800
C2158       C  0.82869262  0.86188512  0.93382757     0.07400
C2159       C  0.85729192  0.85781347  0.93050210    -0.02600
C2160       C  0.85212245  0.82774471  0.90636692    -0.07000
C2161       C  0.81982742  0.80080647  0.88748773     0.06500
C2162       C  0.80026610  0.79560598  0.90215282    -0.02000
Br2163     Br  0.76833953  0.74740238  0.89310654    -0.01700
H2164       H  0.78494339  0.82730286  0.93120540     0.10400
H2165       H  0.87268323  0.82665108  0.90164129     0.08500
Br2166     Br  0.90071157  0.89547113  0.95405215    -0.02200
C2167       C  0.84211938  0.59674369  0.88377648    -0.08800
C2168       C  0.81231929  0.59110481  0.88556034     0.07400
C2169       C  0.78313760  0.62041536  0.86897259    -0.02600
C2170       C  0.78495277  0.65540528  0.85221826    -0.07000
C2171       C  0.81502611  0.66215571  0.85129402     0.06500
C2172       C  0.84398251  0.63291391  0.86721915    -0.02000
Br2173     Br  0.88738388  0.64339344  0.86939112    -0.01700
H2174       H  0.86432150  0.57384613  0.89616999     0.10400
H2175       H  0.76394907  0.67930571  0.84216610     0.08500
Br2176     Br  0.73940934  0.61541456  0.86734913    -0.02200
loop_ 
_geom_bond_atom_site_label_1 
_geom_bond_atom_site_label_2 
_geom_bond_distance 
_geom_bond_site_symmetry_2 
_ccdc_geom_bond_type 
O1            C4   1.271   1_545  A
O1         Cd550   2.433   1_545  S
C2           O11   1.262       .  A
C2            O7   1.269       .  A
C2           C62   1.524       .  S
O3            C9   1.265       .  A
O3         Cd550   2.403   1_545  S
C4           O12   1.263       .  A
C4          C372   1.454   1_565  S
C5           O10   1.264       .  A
C5            O8   1.267       .  A
C5          C254   1.458       .  S
Cd6          O11   2.538       .  S
Cd6           O7   2.465       .  S
Cd6          O10   2.376       .  S
Cd6           O8   2.399       .  S
Cd6         O545   2.450       .  S
Cd6         O547   2.401       .  S
Cd6         O557   2.336       .  S
Cd6         O556   2.416       .  S
C9           O13   1.263       .  A
C9          C264   1.446       .  S
O12        Cd550   2.422       .  S
O13        Cd550   2.341   1_545  S
C14         C257   1.504       .  S
C14          C15   1.535       .  S
C14          C20   1.502       .  S
C14          C18   1.551       .  S
C15          H22   1.084       .  S
C15          C16   1.356       .  D
C16          C17   1.560       .  S
C16         N170   1.437       .  S
C17          C21   1.538       .  S
C17          C19   1.561       .  S
C17          H23   1.103       .  S
C18          H24   1.080       .  S
C18          C19   1.372       .  D
C19          C26   1.564       .  S
C20          H25   1.090       .  S
C20          C21   1.350       .  D
C21         C267   1.452       .  S
C26          C28   1.587       .  S
C26          C30   1.566       .  S
C26          C29   1.541       .  S
C27          C31   1.547       .  S
C27          C33   1.578       .  S
C27          C32   1.532       .  S
C27          C85   1.523       .  S
C28          C36   1.410       .  A
C28          C31   1.397       .  A
C29          C40   1.369       .  A
C29          C32   1.386       .  A
C30          C44   1.407       .  A
C30          C33   1.404       .  A
C31          C34   1.401       .  A
C32          C38   1.388       .  A
C33          C41   1.405       .  A
C34          N35   1.365       .  A
C34          H47   1.081       .  S
N35          C36   1.368       .  A
N35          N77   1.439       .  S
C36          H37   1.078       .  S
C38          N39   1.360       .  A
C38          H48   1.082       .  S
N39         C147   1.444       .  S
N39          C40   1.342       .  A
C40          H46   1.055       .  S
C41          N42   1.373       .  A
C41          H43   1.080       .  S
N42          C44   1.369       .  A
N42          N70   1.445       .  S
C44          H45   1.073       .  S
C49         C234   1.525       .  S
C49          C50   1.548   1_455  S
C49          C53   1.538       .  S
C49         C599   1.511   1_545  S
C50          H57   1.084       .  S
C50         C595   1.366   1_645  D
C51          C52   1.548   1_655  S
C51         C594   1.364       .  D
C51        N1223   1.453       .  S
C52          C56   1.547       .  S
C52          C54   1.578       .  S
C52          H58   1.110       .  S
C53          H59   1.080       .  S
C53         C598   1.357   1_545  D
C54          C61   1.548       .  S
C54         C597   1.356       .  D
C55         C593   1.512   1_655  S
C55          H60   1.086       .  S
C55          C56   1.366   1_655  D
C56         C244   1.478   1_455  S
C61          C65   1.565       .  S
C61          C64   1.519       .  S
C61         C607   1.569       .  S
C62          C68   1.554       .  S
C62          C67   1.547       .  S
C62         C610   1.576       .  S
C63         C605   1.569   1_545  S
C63          C71   1.404       .  A
C63          C66   1.398       .  A
C64          C75   1.364       .  A
C64          C67   1.389       .  A
C65          C79   1.404       .  A
C65          C68   1.396       .  A
C66         C606   1.576   1_545  S
C66          C69   1.411       .  A
C67          C73   1.396       .  A
C68          C76   1.395       .  A
C69          N70   1.376       .  A
C69          H82   1.081       .  S
N70          C71   1.367       .  A
C71          H72   1.079       .  S
C73          N74   1.354       .  A
C73          H83   1.081       .  S
N74         C112   1.441       .  S
N74          C75   1.344       .  A
C75          H81   1.075       .  S
C76          N77   1.369       .  A
C76          H78   1.081       .  S
N77          C79   1.373       .  A
C79          H80   1.081       .  S
O84          C87   1.270       .  A
O84         Cd89   2.501       .  S
C85          O94   1.262       .  A
C85          O90   1.272       .  A
O86          C92   1.261   1_455  A
O86         Cd89   2.464       .  S
C87          O95   1.265   1_455  A
C87         C455   1.484   1_554  S
C88          O93   1.268   1_455  A
C88          O91   1.263       .  A
C88         C237   1.470       .  S
Cd89         O96   2.442       .  S
Cd89         O95   2.508   1_455  S
Cd89         O94   2.484       .  S
Cd89         O90   2.522       .  S
Cd89         O93   2.455   1_455  S
Cd89         O91   2.382       .  S
C92          O96   1.267   1_655  A
C92         C247   1.464       .  S
O97         C100   1.270   1_565  A
O97        Cd102   2.454   1_565  S
C98         O107   1.264       .  A
C98         O103   1.265       .  A
C98         C123   1.519       .  S
O99         C105   1.265       .  A
O99        Cd102   2.340       .  S
C100        O108   1.261       .  A
C100        C276   1.453   1_544  S
C101        O106   1.263       .  A
C101        O104   1.269       .  A
C101        C214   1.463       .  S
Cd102       O109   2.314       .  S
Cd102       O108   2.400       .  S
Cd102       O651   2.478   1_545  S
Cd102       O647   2.486       .  S
Cd102       O650   2.411   1_545  S
Cd102       O648   2.334   1_545  S
O103       Cd646   2.502       .  S
O104       Cd646   2.350       .  S
C105        O109   1.264       .  A
C105        C227   1.443       .  S
O106       Cd646   2.417       .  S
O107       Cd646   2.498       .  S
C110        C194   1.529       .  S
C110        C111   1.519       .  S
C110        C116   1.533       .  S
C110       C1202   1.547       .  S
C111        H118   1.086       .  S
C111        C656   1.356       .  D
C112        C113   1.571       .  S
C112        C655   1.355       .  D
C113        C117   1.528       .  S
C113       C1203   1.557       .  S
C113        H119   1.109       .  S
C114       C1198   1.546       .  S
C114        H120   1.065       .  S
C114        C659   1.378       .  D
C115        C122   1.565       .  S
C115       C1201   1.556       .  S
C115        C658   1.379       .  D
C116        H665   1.083       .  S
C116        C661   1.351   1_545  D
C117        C660   1.350       .  D
C117        C204   1.451       .  S
H121        C660   1.083       .  S
C122        C126   1.575       .  S
C122        C125   1.535       .  S
C122        C668   1.596       .  S
C123        C129   1.581       .  S
C123        C128   1.529       .  S
C123        C671   1.562       .  S
C124        C666   1.599       .  S
C124        C132   1.415       .  A
C124        C127   1.396       .  A
C125        C136   1.378       .  A
C125        C128   1.378       .  A
C126        C140   1.418       .  A
C126        C129   1.405       .  A
C127        C667   1.560       .  S
C127        C130   1.415       .  A
C128        C134   1.391       .  A
C129        C137   1.400       .  A
C130        N131   1.374       .  A
C130        H143   1.082       .  S
N131        C132   1.369       .  A
N131        N173   1.451       .  S
C132        H133   1.077       .  S
C134        N135   1.356       .  A
C134        H144   1.082       .  S
N135       C1139   1.456       .  S
N135        C136   1.351       .  A
C136       H1230   1.065       .  S
C137        N138   1.370       .  A
C137        H139   1.079       .  S
N138        C140   1.380       .  A
N138        N166   1.450       .  S
C140        H141   1.082       .  S
H142       C1224   1.065   1_455  S
C145        C217   1.515       .  S
C145        C146   1.541       .  S
C145        C151   1.508       .  S
C145        C149   1.546       .  S
C146        H153   1.082       .  S
C146        C147   1.367       .  D
C147        C148   1.554       .  S
C148        C152   1.528       .  S
C148        C150   1.565       .  S
C148        H154   1.110       .  S
C149        H155   1.071       .  S
C149        C150   1.365       .  D
C150        C157   1.565       .  S
C151        H156   1.088       .  S
C151        C152   1.351       .  D
C152        C224   1.434       .  S
C157        C159   1.587       .  S
C157        C161   1.590       .  S
C157        C160   1.524       .  S
C158        C162   1.579       .  S
C158        C164   1.560       .  S
C158        C163   1.525       .  S
C158        C181   1.525       .  S
C159        C167   1.411       .  A
C159        C162   1.408       .  A
C160        C171   1.368       .  A
C160        C163   1.377       .  A
C161        C175   1.417       .  A
C161        C164   1.401       .  A
C162        C165   1.417       .  A
C163        C169   1.382       .  A
C164        C172   1.402       .  A
C165        N166   1.371       .  A
C165        H178   1.081       .  S
N166        C167   1.370       .  A
C167        H168   1.072       .  S
C169        N170   1.356       .  A
C169        H179   1.082       .  S
N170        C171   1.350       .  A
C171        H177   1.076       .  S
C172        N173   1.372       .  A
C172        H174   1.081       .  S
N173        C175   1.376       .  A
C175        H176   1.071       .  S
O180       C1271   1.270       .  A
O180       Cd185   2.535       .  S
C181        O190   1.272       .  A
C181        O186   1.260       .  A
O182        C188   1.264       .  A
O182       Cd185   2.387       .  S
C183        O191   1.261       .  A
C183       O1268   1.270   1_455  A
C183        C359   1.481       .  S
C184        O187   1.267       .  A
C184       O1277   1.258       .  A
C184        C197   1.455       .  S
Cd185       O192   2.398       .  S
Cd185       O190   2.546       .  S
Cd185       O186   2.484       .  S
Cd185       O187   2.437       .  S
Cd185      O1279   2.494       .  S
Cd185      O1277   2.426       .  S
C188        O192   1.270       .  A
C188        C207   1.464       .  S
O189       C1272   1.261       .  A
O189      Cd1273   2.426       .  S
O191      Cd1273   2.481       .  S
C193        C194   1.413       .  A
C193        C198   1.391       .  A
C193        H200   1.079       .  S
C194       C1283   1.415       .  A
C195        C196   1.396       .  A
C195       C1282   1.414       .  A
C195       Br202   1.923       .  S
C196        C197   1.401       .  A
C196        H201   1.084       .  S
C197       C1286   1.396       .  A
C198       C1285   1.397       .  A
C198       Br199   1.918       .  S
C203        C204   1.392       .  A
C203        C208   1.390       .  A
C203        H210   1.084       .  S
C204       C1293   1.407       .  A
C205        C206   1.389       .  A
C205       C1292   1.406       .  A
C205       Br212   1.922       .  S
C206        C207   1.402       .  A
C206        H211   1.084       .  S
C207       C1296   1.418       .  A
C208       C1295   1.415       .  A
C208       Br209   1.922       .  S
C213        C214   1.392       .  A
C213        C218   1.380       .  A
C213        H220   1.085       .  S
C214        C215   1.408       .  A
C215        C216   1.396       .  A
C215       Br222   1.921       .  S
C216        C217   1.409       .  A
C216        H221   1.077       .  S
C217        C218   1.424       .  A
C218       Br219   1.928       .  S
C223        C224   1.394       .  A
C223        C228   1.373       .  A
C223        H230   1.084       .  S
C224        C225   1.396       .  A
C225        C226   1.388       .  A
C225       Br232   1.918       .  S
C226        C227   1.407       .  A
C226        H231   1.084       .  S
C227        C228   1.411       .  A
C228       Br229   1.928       .  S
C233        C234   1.407       .  A
C233        C238   1.391       .  A
C233        H240   1.082       .  S
C234        C235   1.413   1_455  A
C235        C236   1.397       .  A
C235      Br1330   1.921       .  S
C236        C237   1.404   1_655  A
C236        H241   1.083       .  S
C237        C238   1.410       .  A
C238       Br239   1.923       .  S
Br242      C1323   1.921       .  S
C243        C244   1.399   1_455  A
C243        C248   1.398       .  A
C243        H250   1.083       .  S
C244        C245   1.414       .  A
C245        C246   1.394       .  A
C245       Br252   1.923       .  S
C246        C247   1.397       .  A
C246        H251   1.083       .  S
C247        C248   1.411   1_655  A
C248       Br249   1.917       .  S
C253        C254   1.398       .  A
C253        C258   1.389       .  A
C253        H260   1.084       .  S
C254        C255   1.402       .  A
C255        C256   1.386       .  A
C255       Br262   1.919       .  S
C256        C257   1.407       .  A
C256        H261   1.081       .  S
C257        C258   1.419       .  A
C258       Br259   1.923       .  S
C263        C264   1.406       .  A
C263        C268   1.397       .  A
C263        H270   1.083       .  S
C264        C265   1.408       .  A
C265        C266   1.373       .  A
C265       Br272   1.929       .  S
C266        C267   1.397       .  A
C266        H271   1.082       .  S
C267        C268   1.400       .  A
C268       Br269   1.917       .  S
O273        C276   1.270   1_545  A
O273       Cd822   2.430   1_545  S
C274        O283   1.261       .  A
C274        O279   1.270       .  A
C274        C334   1.522       .  S
O275        C281   1.265       .  A
O275       Cd822   2.403   1_545  S
C276        O284   1.263       .  A
C277        O282   1.264       .  A
C277        O280   1.267       .  A
C277        C526   1.456       .  S
Cd278       O817   2.448       .  S
Cd278       O819   2.400       .  S
Cd278       O829   2.328       .  S
Cd278       O828   2.423       .  S
Cd278       O283   2.528       .  S
Cd278       O279   2.466       .  S
Cd278       O282   2.360       .  S
Cd278       O280   2.396       .  S
C281        O285   1.262       .  A
C281        C536   1.445       .  S
O284       Cd822   2.424       .  S
O285       Cd822   2.325   1_545  S
C286        C529   1.504       .  S
C286        C287   1.534       .  S
C286        C292   1.503       .  S
C286        C290   1.552       .  S
C287        H294   1.084       .  S
C287        C288   1.355       .  D
C288        C289   1.560       .  S
C288        N442   1.436       .  S
C289        C293   1.538       .  S
C289        C291   1.562       .  S
C289        H295   1.104       .  S
C290        H296   1.079       .  S
C290        C291   1.374       .  D
C291        C298   1.567       .  S
C292        H297   1.090       .  S
C292        C293   1.350       .  D
C293        C539   1.450       .  S
C298        C300   1.587       .  S
C298        C302   1.567       .  S
C298        C301   1.541       .  S
C299        C303   1.548       .  S
C299        C305   1.578       .  S
C299        C304   1.534       .  S
C299        C357   1.522       .  S
C300        C308   1.408       .  A
C300        C303   1.398       .  A
C301        C312   1.370       .  A
C301        C304   1.385       .  A
C302        C316   1.408       .  A
C302        C305   1.403       .  A
C303        C306   1.404       .  A
C304        C310   1.391       .  A
C305        C313   1.405       .  A
C306        N307   1.366       .  A
C306        H319   1.081       .  S
N307        C308   1.367       .  A
N307        N349   1.440       .  S
C308        H309   1.078       .  S
C310        N311   1.361       .  A
C310        H320   1.082       .  S
N311        C419   1.447       .  S
N311        C312   1.342       .  A
C312        H318   1.054       .  S
C313        N314   1.373       .  A
C313        H315   1.080       .  S
N314        C316   1.369       .  A
N314        N342   1.446       .  S
C316        H317   1.072       .  S
C321        C506   1.527       .  S
C321        C322   1.549   1_455  S
C321        C871   1.511   1_545  S
C321        C325   1.538       .  S
C322        H329   1.084       .  S
C322        C867   1.366   1_545  D
C323        C324   1.547   1_655  S
C323        C866   1.362       .  D
C323       N1495   1.453       .  S
C324        C328   1.548       .  S
C324        C326   1.578       .  S
C324        H330   1.110       .  S
C325        H331   1.079       .  S
C325        C870   1.356   1_545  D
C326        C333   1.545       .  S
C326        C869   1.357       .  D
C327        C865   1.513   1_655  S
C327        H332   1.086       .  S
C327        C328   1.366   1_655  D
C328        C516   1.481   1_455  S
C333        C879   1.572       .  S
C333        C337   1.564       .  S
C333        C336   1.521       .  S
C334        C882   1.576       .  S
C334        C340   1.553       .  S
C334        C339   1.544       .  S
C335        C877   1.569   1_545  S
C335        C343   1.403       .  A
C335        C338   1.399       .  A
C336        C347   1.367       .  A
C336        C339   1.389       .  A
C337        C351   1.406       .  A
C337        C340   1.394       .  A
C338        C878   1.578   1_545  S
C338        C341   1.412       .  A
C339        C345   1.394       .  A
C340        C348   1.394       .  A
C341        N342   1.377       .  A
C341        H354   1.081       .  S
N342        C343   1.366       .  A
C343        H344   1.079       .  S
C345        N346   1.353       .  A
C345        H355   1.081       .  S
N346        C384   1.441       .  S
N346        C347   1.345       .  A
C347        H353   1.076       .  S
C348        N349   1.369       .  A
C348        H350   1.081       .  S
N349        C351   1.373       .  A
C351        H352   1.082       .  S
O356        C359   1.270       .  A
O356       Cd361   2.501       .  S
C357        O366   1.263       .  A
C357        O362   1.271       .  A
O358        C364   1.260   1_455  A
O358       Cd361   2.463       .  S
C359        O367   1.265   1_455  A
C360        O365   1.268   1_455  A
C360        O363   1.264       .  A
C360        C509   1.472       .  S
Cd361       O368   2.454       .  S
Cd361       O367   2.500   1_455  S
Cd361       O366   2.483       .  S
Cd361       O362   2.518       .  S
Cd361       O365   2.439   1_455  S
Cd361       O363   2.399       .  S
C364        O368   1.267   1_655  A
C364        C519   1.467       .  S
O369        C372   1.271   1_565  A
O369       Cd374   2.452   1_565  S
C370        O379   1.264       .  A
C370        O375   1.266       .  A
C370        C395   1.518       .  S
O371        C377   1.266       .  A
O371       Cd374   2.347       .  S
C372        O380   1.261       .  A
C373        O378   1.263       .  A
C373        O376   1.270       .  A
C373        C486   1.460       .  S
Cd374       O381   2.314       .  S
Cd374       O380   2.404       .  S
Cd374       O923   2.483   1_545  S
Cd374       O919   2.480       .  S
Cd374       O922   2.410   1_545  S
Cd374       O920   2.346   1_545  S
O375       Cd918   2.502       .  S
O376       Cd918   2.331       .  S
C377        O381   1.264       .  A
C377        C499   1.445       .  S
O378       Cd918   2.407       .  S
O379       Cd918   2.492       .  S
C382        C466   1.523       .  S
C382        C383   1.517       .  S
C382        C388   1.533       .  S
C382       C1474   1.547       .  S
C383        H390   1.086       .  S
C383        C928   1.354       .  D
C384        C385   1.571       .  S
C384        C927   1.356       .  D
C385        C389   1.529       .  S
C385       C1475   1.553       .  S
C385        H391   1.109       .  S
C386       C1470   1.546       .  S
C386        H392   1.066       .  S
C386        C931   1.380       .  D
C387       C1473   1.553       .  S
C387        C394   1.565       .  S
C387        C930   1.380       .  D
C388        H937   1.084       .  S
C388        C933   1.350   1_545  D
C389        C932   1.350       .  D
C389        C476   1.453       .  S
H393        C932   1.083       .  S
C394        C940   1.593       .  S
C394        C398   1.575       .  S
C394        C397   1.536       .  S
C395        C943   1.560       .  S
C395        C401   1.583       .  S
C395        C400   1.525       .  S
C396        C938   1.599       .  S
C396        C404   1.413       .  A
C396        C399   1.396       .  A
C397        C408   1.379       .  A
C397        C400   1.379       .  A
C398        C412   1.419       .  A
C398        C401   1.405       .  A
C399        C939   1.562       .  S
C399        C402   1.418       .  A
C400        C406   1.388       .  A
C401        C409   1.399       .  A
C402        N403   1.376       .  A
C402        H415   1.082       .  S
N403        C404   1.368       .  A
N403        N445   1.452       .  S
C404        H405   1.077       .  S
C406        N407   1.352       .  A
C406        H416   1.082       .  S
N407       C1411   1.452       .  S
N407        C408   1.351       .  A
C408       H1502   1.067       .  S
C409        N410   1.372       .  A
C409        H411   1.079       .  S
N410        C412   1.380       .  A
N410        N438   1.451       .  S
C412        H413   1.082       .  S
H414       C1496   1.066   1_455  S
C417        C489   1.512       .  S
C417        C418   1.542       .  S
C417        C423   1.509       .  S
C417        C421   1.543       .  S
C418        H425   1.082       .  S
C418        C419   1.367       .  D
C419        C420   1.557       .  S
C420        C424   1.527       .  S
C420        C422   1.565       .  S
C420        H426   1.110       .  S
C421        H427   1.071       .  S
C421        C422   1.362       .  D
C422        C429   1.561       .  S
C423        H428   1.088       .  S
C423        C424   1.351       .  D
C424        C496   1.435       .  S
C429        C431   1.587       .  S
C429        C433   1.591       .  S
C429        C432   1.521       .  S
C430        C434   1.577       .  S
C430        C436   1.563       .  S
C430        C435   1.524       .  S
C430        C453   1.520       .  S
C431        C439   1.411       .  A
C431        C434   1.407       .  A
C432        C443   1.367       .  A
C432        C435   1.374       .  A
C433        C447   1.418       .  A
C433        C436   1.401       .  A
C434        C437   1.417       .  A
C435        C441   1.382       .  A
C436        C444   1.403       .  A
C437        N438   1.373       .  A
C437        H450   1.082       .  S
N438        C439   1.370       .  A
C439        H440   1.072       .  S
C441        N442   1.356       .  A
C441        H451   1.083       .  S
N442        C443   1.349       .  A
C443        H449   1.076       .  S
C444        N445   1.373       .  A
C444        H446   1.080       .  S
N445        C447   1.376       .  A
C447        H448   1.071       .  S
O452       C1543   1.270       .  A
O452       Cd457   2.527       .  S
C453        O462   1.266       .  A
C453        O458   1.266       .  A
O454        C460   1.262       .  A
O454       Cd457   2.387       .  S
C455       O1540   1.269   1_455  A
C455        O463   1.262       .  A
C456       O1549   1.261       .  A
C456        O459   1.270       .  A
C456        C469   1.459       .  S
Cd457       O464   2.404       .  S
Cd457      O1551   2.485       .  S
Cd457       O462   2.536       .  S
Cd457       O458   2.475       .  S
Cd457      O1549   2.417       .  S
Cd457       O459   2.440       .  S
C460        O464   1.267       .  A
C460        C479   1.462       .  S
O461       C1544   1.260       .  A
O461      Cd1545   2.427       .  S
O463      Cd1545   2.490       .  S
C465        C466   1.412       .  A
C465        C470   1.389       .  A
C465        H472   1.080       .  S
C466       C1555   1.413       .  A
C467       C1554   1.415       .  A
C467        C468   1.396       .  A
C467       Br474   1.922       .  S
C468        C469   1.402       .  A
C468        H473   1.084       .  S
C469       C1558   1.398       .  A
C470       C1557   1.395       .  A
C470       Br471   1.917       .  S
C475        C476   1.391       .  A
C475        C480   1.390       .  A
C475        H482   1.084       .  S
C476       C1565   1.408       .  A
C477       C1564   1.406       .  A
C477        C478   1.389       .  A
C477       Br484   1.923       .  S
C478        C479   1.403       .  A
C478        H483   1.084       .  S
C479       C1568   1.417       .  A
C480       C1567   1.418       .  A
C480       Br481   1.923       .  S
C485        C486   1.391       .  A
C485        C490   1.378       .  A
C485        H492   1.085       .  S
C486        C487   1.408       .  A
C487        C488   1.395       .  A
C487       Br494   1.921       .  S
C488        C489   1.408       .  A
C488        H493   1.077       .  S
C489        C490   1.424       .  A
C490       Br491   1.928       .  S
C495        C496   1.395       .  A
C495        C500   1.374       .  A
C495        H502   1.083       .  S
C496        C497   1.394       .  A
C497        C498   1.388       .  A
C497       Br504   1.917       .  S
C498        C499   1.407       .  A
C498        H503   1.083       .  S
C499        C500   1.412       .  A
C500       Br501   1.928       .  S
C505        C506   1.408       .  A
C505        C510   1.392       .  A
C505        H512   1.082       .  S
C506        C507   1.413   1_455  A
C507        C508   1.396       .  A
C507      Br1602   1.921       .  S
C508        C509   1.404   1_655  A
C508        H513   1.083       .  S
C509        C510   1.410       .  A
C510       Br511   1.923       .  S
Br514      C1595   1.921       .  S
C515        C516   1.400   1_455  A
C515        C520   1.400       .  A
C515        H522   1.083       .  S
C516        C517   1.415       .  A
C517        C518   1.393       .  A
C517       Br524   1.923       .  S
C518        C519   1.397       .  A
C518        H523   1.084       .  S
C519        C520   1.412   1_655  A
C520       Br521   1.918       .  S
C525        C526   1.398       .  A
C525        C530   1.389       .  A
C525        H532   1.084       .  S
C526        C527   1.402       .  A
C527        C528   1.385       .  A
C527       Br534   1.920       .  S
C528        C529   1.408       .  A
C528        H533   1.081       .  S
C529        C530   1.419       .  A
C530       Br531   1.923       .  S
C535        C536   1.405       .  A
C535        C540   1.396       .  A
C535        H542   1.083       .  S
C536        C537   1.408       .  A
C537        C538   1.372       .  A
C537       Br544   1.929       .  S
C538        C539   1.397       .  A
C538        H543   1.082       .  S
C539        C540   1.400       .  A
C540       Br541   1.917       .  S
O545        C548   1.271       .  A
C546        O555   1.262       .  A
C546        O551   1.269       .  A
C546        C606   1.524       .  S
O547        C553   1.265       .  A
C548        O556   1.262       .  A
C548        C916   1.455       .  S
C549        O554   1.263       .  A
C549        O552   1.266       .  A
C549        C798   1.456       .  S
Cd550       O555   2.534       .  S
Cd550       O551   2.469       .  S
Cd550       O554   2.367       .  S
Cd550       O552   2.398       .  S
C553        O557   1.263       .  A
C553        C808   1.445       .  S
C558        C801   1.501       .  S
C558        C559   1.534       .  S
C558        C564   1.501       .  S
C558        C562   1.550       .  S
C559        H566   1.084       .  S
C559        C560   1.355       .  D
C560        C561   1.560       .  S
C560        N714   1.436       .  S
C561        C565   1.539       .  S
C561        C563   1.562       .  S
C561        H567   1.103       .  S
C562        H568   1.079       .  S
C562        C563   1.372       .  D
C563        C570   1.564       .  S
C564        H569   1.090       .  S
C564        C565   1.349       .  D
C565        C811   1.450       .  S
C570        C572   1.589       .  S
C570        C574   1.566       .  S
C570        C573   1.539       .  S
C571        C575   1.546       .  S
C571        C577   1.575       .  S
C571        C576   1.530       .  S
C571        C629   1.518       .  S
C572        C580   1.410       .  A
C572        C575   1.396       .  A
C573        C584   1.369       .  A
C573        C576   1.385       .  A
C574        C588   1.405       .  A
C574        C577   1.404       .  A
C575        C578   1.401       .  A
C576        C582   1.386       .  A
C577        C585   1.405       .  A
C578        N579   1.366       .  A
C578        H591   1.081       .  S
N579        C580   1.368       .  A
N579        N621   1.440       .  S
C580        H581   1.078       .  S
C582        N583   1.359       .  A
C582        H592   1.082       .  S
N583        C691   1.441       .  S
N583        C584   1.341       .  A
C584        H590   1.054       .  S
C585        N586   1.372       .  A
C585        H587   1.080       .  S
N586        C588   1.368       .  A
N586        N614   1.443       .  S
C588        H589   1.070       .  S
C593        C778   1.526       .  S
C593        C594   1.547   1_455  S
C593        C597   1.538       .  S
C594        H601   1.084       .  S
C595        C596   1.545       .  S
C595       N1767   1.453   1_465  S
C596        C600   1.548       .  S
C596        C598   1.577       .  S
C596        H602   1.109       .  S
C597        H603   1.079       .  S
C598        C605   1.549       .  S
C599        H604   1.086   1_455  S
C599        C600   1.365       .  D
C600        C788   1.477   1_455  S
C605        C609   1.563       .  S
C605        C608   1.520       .  S
C606        C612   1.557       .  S
C606        C611   1.548       .  S
C607        C615   1.403       .  A
C607        C610   1.400       .  A
C608        C619   1.363   1_565  A
C608        C611   1.391       .  A
C609        C623   1.404       .  A
C609        C612   1.396       .  A
C610        C613   1.409       .  A
C611        C617   1.396       .  A
C612        C620   1.396       .  A
C613        N614   1.375       .  A
C613        H626   1.080       .  S
N614        C615   1.366       .  A
C615        H616   1.079       .  S
C617        N618   1.355   1_565  A
C617        H627   1.081       .  S
N618        C656   1.441       .  S
N618        C619   1.344       .  A
C619        H625   1.075       .  S
C620        N621   1.370       .  A
C620        H622   1.081       .  S
N621        C623   1.373       .  A
C623        H624   1.081       .  S
O628        C631   1.269       .  A
O628       Cd633   2.494       .  S
C629        O638   1.262       .  A
C629        O634   1.271       .  A
O630        C636   1.261       .  A
O630       Cd633   2.467       .  S
C631        O639   1.266       .  A
C631        C999   1.483   1_554  S
C632        O637   1.268   1_455  A
C632        O635   1.264       .  A
C632        C781   1.471       .  S
Cd633       O640   2.437       .  S
Cd633       O639   2.515       .  S
Cd633       O638   2.476       .  S
Cd633       O634   2.511       .  S
Cd633       O637   2.430   1_455  S
Cd633       O635   2.398       .  S
C636        O640   1.268       .  A
C636        C791   1.462   1_455  S
O641        C644   1.271       .  A
O641       Cd646   2.456       .  S
C642        O651   1.264   1_545  A
C642        O647   1.266       .  A
C642        C667   1.513       .  S
O643        C649   1.265       .  A
O643       Cd646   2.338       .  S
C644        O652   1.262       .  A
C644        C820   1.457   1_554  S
C645        O650   1.264       .  A
C645        O648   1.270       .  A
C645        C758   1.458       .  S
Cd646       O653   2.320       .  S
Cd646       O652   2.418       .  S
C649        O653   1.264       .  A
C649        C771   1.445       .  S
C654        C738   1.525       .  S
C654        C655   1.518       .  S
C654        C660   1.532       .  S
C654       C1746   1.547       .  S
C655        H662   1.086       .  S
C656        C657   1.571   1_545  S
C657        C661   1.531       .  S
C657       C1747   1.560   1_565  S
C657        H663   1.110       .  S
C658       C1742   1.547       .  S
C658        H664   1.068       .  S
C659       C1745   1.557   1_545  S
C659        C666   1.564       .  S
C661        C748   1.456       .  S
C666        C670   1.573   1_545  S
C666        C669   1.537       .  S
C667        C673   1.582   1_545  S
C667        C672   1.528       .  S
C668        C676   1.413       .  A
C668        C671   1.397       .  A
C669        C680   1.379       .  A
C669        C672   1.378       .  A
C670        C684   1.418       .  A
C670        C673   1.403       .  A
C671        C674   1.415       .  A
C672        C678   1.390       .  A
C673        C681   1.401       .  A
C674        N675   1.375       .  A
C674        H687   1.082       .  S
N675        C676   1.368       .  A
N675        N717   1.451       .  S
C676        H677   1.078       .  S
C678        N679   1.354       .  A
C678        H688   1.082       .  S
N679       C1683   1.456   1_545  S
N679        C680   1.351       .  A
C680       H1774   1.066   1_545  S
C681        N682   1.372       .  A
C681        H683   1.079       .  S
N682        C684   1.379       .  A
N682        N710   1.450       .  S
C684        H685   1.081       .  S
H686       C1768   1.066   1_465  S
C689        C761   1.510       .  S
C689        C690   1.539       .  S
C689        C695   1.507       .  S
C689        C693   1.542       .  S
C690        H697   1.082       .  S
C690        C691   1.366       .  D
C691        C692   1.554       .  S
C692        C696   1.527       .  S
C692        C694   1.563       .  S
C692        H698   1.110       .  S
C693        H699   1.071       .  S
C693        C694   1.360       .  D
C694        C701   1.556       .  S
C695        H700   1.088       .  S
C695        C696   1.353       .  D
C696        C768   1.436       .  S
C701        C703   1.586       .  S
C701        C705   1.586       .  S
C701        C704   1.523       .  S
C702        C706   1.578       .  S
C702        C708   1.562       .  S
C702        C707   1.523       .  S
C702        C725   1.517       .  S
C703        C711   1.411       .  A
C703        C706   1.408       .  A
C704        C715   1.368       .  A
C704        C707   1.374       .  A
C705        C719   1.415       .  A
C705        C708   1.399       .  A
C706        C709   1.417       .  A
C707        C713   1.381       .  A
C708        C716   1.404       .  A
C709        N710   1.373       .  A
C709        H722   1.082       .  S
N710        C711   1.369       .  A
C711        H712   1.072       .  S
C713        N714   1.356       .  A
C713        H723   1.083       .  S
N714        C715   1.350       .  A
C715        H721   1.076       .  S
C716        N717   1.373       .  A
C716        H718   1.081       .  S
N717        C719   1.375       .  A
C719        H720   1.069       .  S
O724       C1815   1.270       .  A
O724       Cd729   2.522       .  S
C725        O734   1.266       .  A
C725        O730   1.266       .  A
O726        C732   1.262       .  A
O726       Cd729   2.386       .  S
C727       O1812   1.271   1_455  A
C727        O735   1.262       .  A
C727        C903   1.483       .  S
C728       O1821   1.261       .  A
C728        O731   1.270       .  A
C728        C741   1.457       .  S
Cd729       O736   2.380       .  S
Cd729      O1823   2.481       .  S
Cd729       O734   2.518       .  S
Cd729       O730   2.480       .  S
Cd729      O1821   2.407       .  S
Cd729       O731   2.426       .  S
C732        O736   1.268       .  A
C732        C751   1.463       .  S
O733       C1816   1.259       .  A
O733      Cd1817   2.412       .  S
O735      Cd1817   2.469       .  S
C737        C738   1.413       .  A
C737        C742   1.389       .  A
C737        H744   1.079       .  S
C738       C1827   1.414       .  A
C739       C1826   1.413       .  A
C739        C740   1.396       .  A
C739       Br746   1.922       .  S
C740        C741   1.403       .  A
C740        H745   1.084       .  S
C741       C1830   1.397       .  A
C742       C1829   1.396       .  A
C742       Br743   1.919       .  S
C747        C748   1.394       .  A
C747        C752   1.394       .  A
C747        H754   1.084       .  S
C748       C1837   1.405       .  A
C749       C1836   1.403       .  A
C749        C750   1.385       .  A
C749       Br756   1.922   1_565  S
C750        C751   1.403       .  A
C750        H755   1.084       .  S
C751       C1840   1.417       .  A
C752       C1839   1.419       .  A
C752       Br753   1.924       .  S
C757        C758   1.392       .  A
C757        C762   1.379       .  A
C757        H764   1.085       .  S
C758        C759   1.408       .  A
C759        C760   1.394       .  A
C759       Br766   1.920       .  S
C760        C761   1.407       .  A
C760        H765   1.077       .  S
C761        C762   1.424       .  A
C762       Br763   1.928       .  S
C767        C768   1.395       .  A
C767        C772   1.373       .  A
C767        H774   1.083       .  S
C768        C769   1.395       .  A
C769        C770   1.388       .  A
C769       Br776   1.917       .  S
C770        C771   1.408       .  A
C770        H775   1.083       .  S
C771        C772   1.411       .  A
C772       Br773   1.928       .  S
C777        C778   1.407       .  A
C777        C782   1.392       .  A
C777        H784   1.082       .  S
C778        C779   1.413   1_455  A
C779        C780   1.395       .  A
C779      Br1874   1.922       .  S
C780        C781   1.404   1_655  A
C780        H785   1.083       .  S
C781        C782   1.411       .  A
C782       Br783   1.923       .  S
Br786      C1867   1.923       .  S
C787        C788   1.399   1_455  A
C787        C792   1.398       .  A
C787        H794   1.083       .  S
C788        C789   1.415       .  A
C789        C790   1.393       .  A
C789       Br796   1.923       .  S
C790        C791   1.396       .  A
C790        H795   1.084       .  S
C791        C792   1.409   1_655  A
C792       Br793   1.916       .  S
C797        C798   1.399       .  A
C797        C802   1.389       .  A
C797        H804   1.084       .  S
C798        C799   1.404       .  A
C799        C800   1.384       .  A
C799       Br806   1.920       .  S
C800        C801   1.406       .  A
C800        H805   1.081       .  S
C801        C802   1.418       .  A
C802       Br803   1.925       .  S
C807        C808   1.405       .  A
C807        C812   1.396       .  A
C807        H814   1.083       .  S
C808        C809   1.407       .  A
C809        C810   1.373       .  A
C809       Br816   1.929       .  S
C810        C811   1.396       .  A
C810        H815   1.082       .  S
C811        C812   1.401       .  A
C812       Br813   1.917       .  S
O817        C820   1.271       .  A
C818        O827   1.263       .  A
C818        O823   1.269       .  A
C818        C878   1.524       .  S
O819        C825   1.265       .  A
C820        O828   1.263       .  A
C821        O826   1.264       .  A
C821        O824   1.267       .  A
C821       C1070   1.457       .  S
Cd822       O827   2.529       .  S
Cd822       O823   2.465       .  S
Cd822       O826   2.382       .  S
Cd822       O824   2.378       .  S
C825        O829   1.263       .  A
C825       C1080   1.444       .  S
C830       C1073   1.505       .  S
C830        C831   1.535       .  S
C830        C836   1.504       .  S
C830        C834   1.552       .  S
C831        H838   1.084       .  S
C831        C832   1.354       .  D
C832        C833   1.559       .  S
C832        N986   1.436       .  S
C833        C837   1.538       .  S
C833        C835   1.561       .  S
C833        H839   1.103       .  S
C834        H840   1.079       .  S
C834        C835   1.374       .  D
C835        C842   1.565       .  S
C836        H841   1.090       .  S
C836        C837   1.350       .  D
C837       C1083   1.450       .  S
C842        C844   1.589       .  S
C842        C846   1.571       .  S
C842        C845   1.542       .  S
C843        C847   1.545       .  S
C843        C849   1.574       .  S
C843        C848   1.530       .  S
C843        C901   1.517       .  S
C844        C852   1.410       .  A
C844        C847   1.396       .  A
C845        C856   1.371       .  A
C845        C848   1.385       .  A
C846        C860   1.409       .  A
C846        C849   1.403       .  A
C847        C850   1.402       .  A
C848        C854   1.387       .  A
C849        C857   1.405       .  A
C850        N851   1.365       .  A
C850        H863   1.081       .  S
N851        C852   1.368       .  A
N851        N893   1.440       .  S
C852        H853   1.078       .  S
C854        N855   1.359       .  A
C854        H864   1.082       .  S
N855        C963   1.443       .  S
N855        C856   1.343       .  A
C856        H862   1.055       .  S
C857        N858   1.371       .  A
C857        H859   1.080       .  S
N858        C860   1.371       .  A
N858        N886   1.446       .  S
C860        H861   1.072       .  S
C865       C1050   1.525       .  S
C865        C866   1.546   1_455  S
C865        C869   1.537       .  S
C866        H873   1.083       .  S
C867        C868   1.548   1_655  S
C867       N2039   1.455   1_565  S
C868        C872   1.545       .  S
C868        C870   1.577       .  S
C868        H874   1.110       .  S
C869        H875   1.080       .  S
C870        C877   1.548       .  S
C871        H876   1.086   1_455  S
C871        C872   1.366       .  D
C872       C1060   1.477   1_455  S
C877        C881   1.565       .  S
C877        C880   1.518       .  S
C878        C884   1.555       .  S
C878        C883   1.549       .  S
C879        C887   1.406       .  A
C879        C882   1.400       .  A
C880        C891   1.362   1_565  A
C880        C883   1.388       .  A
C881        C895   1.405       .  A
C881        C884   1.395       .  A
C882        C885   1.409       .  A
C883        C889   1.396       .  A
C884        C892   1.395       .  A
C885        N886   1.375       .  A
C885        H898   1.080       .  S
N886        C887   1.369       .  A
C887        H888   1.079       .  S
C889        N890   1.356   1_565  A
C889        H899   1.081       .  S
N890        C928   1.441       .  S
N890        C891   1.344       .  A
C891        H897   1.075       .  S
C892        N893   1.369       .  A
C892        H894   1.081       .  S
N893        C895   1.374       .  A
C895        H896   1.081       .  S
O900        C903   1.269       .  A
O900       Cd905   2.484       .  S
C901        O910   1.261       .  A
C901        O906   1.271       .  A
O902        C908   1.261       .  A
O902       Cd905   2.459       .  S
C903        O911   1.266   1_455  A
C904        O909   1.267   1_455  A
C904        O907   1.264       .  A
C904       C1053   1.472       .  S
Cd905       O912   2.444       .  S
Cd905       O911   2.519   1_455  S
Cd905       O910   2.464       .  S
Cd905       O906   2.517       .  S
Cd905       O909   2.434   1_455  S
Cd905       O907   2.408       .  S
C908        O912   1.268       .  A
C908       C1063   1.463   1_455  S
O913        C916   1.271       .  A
O913       Cd918   2.450       .  S
C914        O923   1.265   1_545  A
C914        O919   1.265       .  A
C914        C939   1.514       .  S
O915        C921   1.265       .  A
O915       Cd918   2.319       .  S
C916        O924   1.261       .  A
C917        O922   1.264       .  A
C917        O920   1.270       .  A
C917       C1030   1.459       .  S
Cd918       O925   2.316       .  S
Cd918       O924   2.414       .  S
C921        O925   1.265       .  A
C921       C1043   1.439       .  S
C926       C1010   1.527       .  S
C926        C927   1.519       .  S
C926        C932   1.531       .  S
C926       C2018   1.548       .  S
C927        H934   1.086       .  S
C928        C929   1.572   1_545  S
C929        C933   1.529       .  S
C929       C2019   1.559   1_565  S
C929        H935   1.110       .  S
C930       C2014   1.547       .  S
C930        H936   1.065       .  S
C931       C2017   1.557       .  S
C931        C938   1.568       .  S
C933       C1020   1.451       .  S
C938        C942   1.578   1_545  S
C938        C941   1.538       .  S
C939        C945   1.583   1_545  S
C939        C944   1.525       .  S
C940        C948   1.410       .  A
C940        C943   1.396       .  A
C941        C952   1.378       .  A
C941        C944   1.376       .  A
C942        C956   1.421       .  A
C942        C945   1.404       .  A
C943        C946   1.414       .  A
C944        C950   1.390       .  A
C945        C953   1.400       .  A
C946        N947   1.375       .  A
C946        H959   1.082       .  S
N947        C948   1.366       .  A
N947        N989   1.448       .  S
C948        H949   1.078       .  S
C950        N951   1.354       .  A
C950        H960   1.083       .  S
N951       C1955   1.455   1_545  S
N951        C952   1.352       .  A
C952       H2046   1.065   1_545  S
C953        N954   1.371       .  A
C953        H955   1.079       .  S
N954        C956   1.381       .  A
N954        N982   1.452       .  S
C956        H957   1.082       .  S
H958       C2040   1.066   1_465  S
C961       C1033   1.510       .  S
C961        C962   1.542       .  S
C961        C967   1.505       .  S
C961        C965   1.543       .  S
C962        H969   1.082       .  S
C962        C963   1.368       .  D
C963        C964   1.553       .  S
C964        C968   1.527       .  S
C964        C966   1.563       .  S
C964        H970   1.110       .  S
C965        H971   1.072       .  S
C965        C966   1.361       .  D
C966        C973   1.554       .  S
C967        H972   1.088       .  S
C967        C968   1.351       .  D
C968       C1040   1.434       .  S
C973        C975   1.585       .  S
C973        C977   1.583       .  S
C973        C976   1.523       .  S
C974        C978   1.579       .  S
C974        C980   1.561       .  S
C974        C979   1.525       .  S
C974        C997   1.516       .  S
C975        C983   1.410       .  A
C975        C978   1.406       .  A
C976        C987   1.368       .  A
C976        C979   1.374       .  A
C977        C991   1.412       .  A
C977        C980   1.399       .  A
C978        C981   1.418       .  A
C979        C985   1.382       .  A
C980        C988   1.403       .  A
C981        N982   1.374       .  A
C981        H994   1.082       .  S
N982        C983   1.371       .  A
C983        H984   1.072       .  S
C985        N986   1.356       .  A
C985        H995   1.083       .  S
N986        C987   1.350       .  A
C987        H993   1.076       .  S
C988        N989   1.372       .  A
C988        H990   1.081       .  S
N989        C991   1.372       .  A
C991        H992   1.069       .  S
O996       C2087   1.269       .  A
O996      Cd1001   2.530       .  S
C997       O1006   1.265       .  A
C997       O1002   1.267       .  A
O998       C1004   1.262       .  A
O998      Cd1001   2.414       .  S
C999       O2084   1.270   1_455  A
C999       O1007   1.262       .  A
C1000      O2093   1.262       .  A
C1000      O1003   1.271       .  A
C1000      C1013   1.454       .  S
Cd1001     O1008   2.381       .  S
Cd1001     O2095   2.480       .  S
Cd1001     O1006   2.525       .  S
Cd1001     O1002   2.470       .  S
Cd1001     O2093   2.405       .  S
Cd1001     O1003   2.420       .  S
C1004      O1008   1.266       .  A
C1004      C1023   1.464       .  S
O1005      C2088   1.259       .  A
O1005     Cd2089   2.416       .  S
O1007     Cd2089   2.480       .  S
C1009      C1010   1.414       .  A
C1009      C1014   1.391       .  A
C1009      H1016   1.079       .  S
C1010      C2099   1.414       .  A
C1011      C2098   1.415       .  A
C1011      C1012   1.396       .  A
C1011     Br1018   1.923       .  S
C1012      C1013   1.401       .  A
C1012      H1017   1.084       .  S
C1013      C2102   1.396       .  A
C1014      C2101   1.396       .  A
C1014     Br1015   1.919       .  S
C1019      C1020   1.392       .  A
C1019      C1024   1.391       .  A
C1019      H1026   1.084       .  S
C1020      C2109   1.404       .  A
C1021      C2108   1.404       .  A
C1021      C1022   1.385       .  A
C1021     Br1028   1.921   1_565  S
C1022      C1023   1.402       .  A
C1022      H1027   1.084       .  S
C1023      C2112   1.417       .  A
C1024      C2111   1.418       .  A
C1024     Br1025   1.923       .  S
C1029      C1030   1.392       .  A
C1029      C1034   1.380       .  A
C1029      H1036   1.085       .  S
C1030      C1031   1.408       .  A
C1031      C1032   1.393       .  A
C1031     Br1038   1.919       .  S
C1032      C1033   1.405       .  A
C1032      H1037   1.077       .  S
C1033      C1034   1.425       .  A
C1034     Br1035   1.928       .  S
C1039      C1040   1.396       .  A
C1039      C1044   1.372       .  A
C1039      H1046   1.083       .  S
C1040      C1041   1.394       .  A
C1041      C1042   1.387       .  A
C1041     Br1048   1.917       .  S
C1042      C1043   1.406       .  A
C1042      H1047   1.084       .  S
C1043      C1044   1.410       .  A
C1044     Br1045   1.929       .  S
C1049      C1050   1.407       .  A
C1049      C1054   1.394       .  A
C1049      H1056   1.083       .  S
C1050      C1051   1.412   1_455  A
C1051      C1052   1.394       .  A
C1051     Br2146   1.923       .  S
C1052      C1053   1.403   1_655  A
C1052      H1057   1.083       .  S
C1053      C1054   1.411       .  A
C1054     Br1055   1.922       .  S
Br1058     C2139   1.922       .  S
C1059      C1060   1.399   1_455  A
C1059      C1064   1.399       .  A
C1059      H1066   1.083       .  S
C1060      C1061   1.413       .  A
C1061      C1062   1.393       .  A
C1061     Br1068   1.923       .  S
C1062      C1063   1.397       .  A
C1062      H1067   1.083       .  S
C1063      C1064   1.410   1_655  A
C1064     Br1065   1.916       .  S
C1069      C1070   1.399       .  A
C1069      C1074   1.389       .  A
C1069      H1076   1.084       .  S
C1070      C1071   1.402       .  A
C1071      C1072   1.385       .  A
C1071     Br1078   1.920       .  S
C1072      C1073   1.408       .  A
C1072      H1077   1.081       .  S
C1073      C1074   1.418       .  A
C1074     Br1075   1.923       .  S
C1079      C1080   1.405       .  A
C1079      C1084   1.396       .  A
C1079      H1086   1.083       .  S
C1080      C1081   1.408       .  A
C1081      C1082   1.372       .  A
C1081     Br1088   1.929       .  S
C1082      C1083   1.396       .  A
C1082      H1087   1.082       .  S
C1083      C1084   1.400       .  A
C1084     Br1085   1.917       .  S
O1089      C1092   1.271   1_545  A
O1089     Cd1638   2.436   1_545  S
C1090      O1099   1.261       .  A
C1090      O1095   1.268       .  A
C1090      C1150   1.518       .  S
O1091      C1097   1.265       .  A
O1091     Cd1638   2.399   1_545  S
C1092      O1100   1.262       .  A
C1092      C1460   1.453   1_565  S
C1093      O1098   1.263       .  A
C1093      O1096   1.267       .  A
C1093      C1342   1.456       .  S
Cd1094     O1633   2.437       .  S
Cd1094     O1635   2.401       .  S
Cd1094     O1645   2.323       .  S
Cd1094     O1644   2.413       .  S
Cd1094     O1099   2.522       .  S
Cd1094     O1095   2.443       .  S
Cd1094     O1098   2.356       .  S
Cd1094     O1096   2.399       .  S
C1097      O1101   1.263       .  A
C1097      C1352   1.444       .  S
O1100     Cd1638   2.424       .  S
O1101     Cd1638   2.335   1_545  S
C1102      C1345   1.506       .  S
C1102      C1103   1.535       .  S
C1102      C1108   1.503       .  S
C1102      C1106   1.551       .  S
C1103      H1110   1.084       .  S
C1103      C1104   1.357       .  D
C1104      C1105   1.559       .  S
C1104      N1258   1.437       .  S
C1105      C1109   1.541       .  S
C1105      C1107   1.561       .  S
C1105      H1111   1.103       .  S
C1106      H1112   1.079       .  S
C1106      C1107   1.372       .  D
C1107      C1114   1.566       .  S
C1108      H1113   1.090       .  S
C1108      C1109   1.351       .  D
C1109      C1355   1.453       .  S
C1114      C1116   1.588       .  S
C1114      C1118   1.567       .  S
C1114      C1117   1.541       .  S
C1115      C1119   1.546       .  S
C1115      C1121   1.576       .  S
C1115      C1120   1.531       .  S
C1115      C1173   1.519       .  S
C1116      C1124   1.410       .  A
C1116      C1119   1.398       .  A
C1117      C1128   1.370       .  A
C1117      C1120   1.385       .  A
C1118      C1132   1.405       .  A
C1118      C1121   1.402       .  A
C1119      C1122   1.401       .  A
C1120      C1126   1.387       .  A
C1121      C1129   1.406       .  A
C1122      N1123   1.364       .  A
C1122      H1135   1.081       .  S
N1123      C1124   1.368       .  A
N1123      N1165   1.439       .  S
C1124      H1125   1.078       .  S
C1126      N1127   1.359       .  A
C1126      H1136   1.082       .  S
N1127      C1235   1.444       .  S
N1127      C1128   1.344       .  A
C1128      H1134   1.056       .  S
C1129      N1130   1.373       .  A
C1129      H1131   1.080       .  S
N1130      C1132   1.368       .  A
N1130      N1158   1.445       .  S
C1132      H1133   1.070       .  S
C1137      C1322   1.526       .  S
C1137      C1138   1.548       .  S
C1137      C1687   1.511   1_545  S
C1137      C1141   1.539       .  S
C1138      H1145   1.084       .  S
C1138      C1683   1.365   1_545  D
C1139      C1140   1.549       .  S
C1139      C1682   1.365       .  D
C1140      C1144   1.548       .  S
C1140      C1142   1.579       .  S
C1140      H1146   1.110       .  S
C1141      H1147   1.080       .  S
C1141      C1686   1.357   1_545  D
C1142      C1149   1.549       .  S
C1142      C1685   1.357       .  D
C1143      C1681   1.511       .  S
C1143      H1148   1.086       .  S
C1143      C1144   1.365       .  D
C1144      C1332   1.479       .  S
C1149      C1695   1.570       .  S
C1149      C1153   1.567       .  S
C1149      C1152   1.520       .  S
C1150      C1698   1.573       .  S
C1150      C1156   1.551       .  S
C1150      C1155   1.546       .  S
C1151      C1693   1.568   1_545  S
C1151      C1159   1.404       .  A
C1151      C1154   1.400       .  A
C1152      C1163   1.365       .  A
C1152      C1155   1.389       .  A
C1153      C1167   1.405       .  A
C1153      C1156   1.395       .  A
C1154      C1694   1.578   1_545  S
C1154      C1157   1.409       .  A
C1155      C1161   1.395       .  A
C1156      C1164   1.394       .  A
C1157      N1158   1.376       .  A
C1157      H1170   1.079       .  S
N1158      C1159   1.366       .  A
C1159      H1160   1.079       .  S
C1161      N1162   1.353       .  A
C1161      H1171   1.081       .  S
N1162      C1200   1.441       .  S
N1162      C1163   1.344       .  A
C1163      H1169   1.076       .  S
C1164      N1165   1.368       .  A
C1164      H1166   1.081       .  S
N1165      C1167   1.374       .  A
C1167      H1168   1.081       .  S
O1172      C1175   1.270       .  A
O1172     Cd1177   2.507       .  S
C1173      O1182   1.262       .  A
C1173      O1178   1.271       .  A
O1174      C1180   1.259       .  A
O1174     Cd1177   2.451       .  S
C1175      O1183   1.264       .  A
C1175      C1543   1.481   1_554  S
C1176      O1181   1.268       .  A
C1176      O1179   1.264       .  A
C1176      C1325   1.472       .  S
Cd1177     O1184   2.448       .  S
Cd1177     O1183   2.495       .  S
Cd1177     O1182   2.476       .  S
Cd1177     O1178   2.516       .  S
Cd1177     O1181   2.451       .  S
Cd1177     O1179   2.378       .  S
C1180      O1184   1.267       .  A
C1180      C1335   1.464       .  S
O1185      C1188   1.271   1_565  A
O1185     Cd1190   2.462   1_565  S
C1186      O1195   1.264       .  A
C1186      O1191   1.266       .  A
C1186      C1211   1.518       .  S
O1187      C1193   1.266       .  A
O1187     Cd1190   2.349       .  S
C1188      O1196   1.260       .  A
C1188      C1364   1.453   1_544  S
C1189      O1194   1.263       .  A
C1189      O1192   1.269       .  A
C1189      C1302   1.460       .  S
Cd1190     O1197   2.312       .  S
Cd1190     O1196   2.399       .  S
Cd1190     O1739   2.487   1_545  S
Cd1190     O1735   2.502       .  S
Cd1190     O1738   2.417   1_545  S
Cd1190     O1736   2.355   1_545  S
O1191     Cd1734   2.505       .  S
O1192     Cd1734   2.345       .  S
C1193      O1197   1.263       .  A
C1193      C1315   1.446       .  S
O1194     Cd1734   2.408       .  S
O1195     Cd1734   2.485       .  S
C1198      C1282   1.526       .  S
C1198      C1199   1.519       .  S
C1198      C1204   1.532       .  S
C1199      H1206   1.086       .  S
C1199      C1744   1.356       .  D
C1200      C1201   1.571       .  S
C1200      C1743   1.356       .  D
C1201      C1205   1.529       .  S
C1201      H1207   1.110       .  S
C1202      H1208   1.063       .  S
C1202      C1747   1.379       .  D
C1203      C1210   1.566   1_455  S
C1203      C1746   1.378       .  D
C1204      H1753   1.083       .  S
C1204      C1749   1.350   1_545  D
C1205      C1748   1.350       .  D
C1205      C1292   1.454       .  S
H1209      C1748   1.083       .  S
C1210      C1756   1.596       .  S
C1210      C1214   1.573       .  S
C1210      C1213   1.535       .  S
C1211      C1759   1.560       .  S
C1211      C1217   1.583       .  S
C1211      C1216   1.526       .  S
C1212      C1754   1.598       .  S
C1212      C1220   1.412       .  A
C1212      C1215   1.399       .  A
C1213      C1224   1.378       .  A
C1213      C1216   1.379       .  A
C1214      C1228   1.417       .  A
C1214      C1217   1.404       .  A
C1215      C1755   1.558       .  S
C1215      C1218   1.413       .  A
C1216      C1222   1.389       .  A
C1217      C1225   1.400       .  A
C1218      N1219   1.373       .  A
C1218      H1231   1.082       .  S
N1219      C1220   1.368       .  A
N1219      N1261   1.448       .  S
C1220      H1221   1.076       .  S
C1222      N1223   1.354       .  A
C1222      H1232   1.082       .  S
N1223      C1224   1.350       .  A
C1225      N1226   1.372       .  A
C1225      H1227   1.079       .  S
N1226      C1228   1.379       .  A
N1226      N1254   1.450       .  S
C1228      H1229   1.082       .  S
C1233      C1305   1.513       .  S
C1233      C1234   1.542       .  S
C1233      C1239   1.506       .  S
C1233      C1237   1.544       .  S
C1234      H1241   1.082       .  S
C1234      C1235   1.367       .  D
C1235      C1236   1.555       .  S
C1236      C1240   1.529       .  S
C1236      C1238   1.564       .  S
C1236      H1242   1.110       .  S
C1237      H1243   1.071       .  S
C1237      C1238   1.363       .  D
C1238      C1245   1.560       .  S
C1239      H1244   1.088       .  S
C1239      C1240   1.352       .  D
C1240      C1312   1.437       .  S
C1245      C1247   1.586       .  S
C1245      C1249   1.586       .  S
C1245      C1248   1.526       .  S
C1246      C1250   1.577       .  S
C1246      C1252   1.559       .  S
C1246      C1251   1.524       .  S
C1246      C1269   1.520       .  S
C1247      C1255   1.410       .  A
C1247      C1250   1.408       .  A
C1248      C1259   1.369       .  A
C1248      C1251   1.375       .  A
C1249      C1263   1.415       .  A
C1249      C1252   1.400       .  A
C1250      C1253   1.416       .  A
C1251      C1257   1.381       .  A
C1252      C1260   1.401       .  A
C1253      N1254   1.373       .  A
C1253      H1266   1.082       .  S
N1254      C1255   1.370       .  A
C1255      H1256   1.072       .  S
C1257      N1258   1.355       .  A
C1257      H1267   1.083       .  S
N1258      C1259   1.351       .  A
C1259      H1265   1.076       .  S
C1260      N1261   1.370       .  A
C1260      H1262   1.080       .  S
N1261      C1263   1.374       .  A
C1263      H1264   1.070       .  S
O1268     Cd1273   2.529   1_655  S
C1269      O1278   1.266       .  A
C1269      O1274   1.266       .  A
O1270      C1276   1.264       .  A
O1270     Cd1273   2.388       .  S
C1271      O1279   1.262       .  A
C1271      C1447   1.485       .  S
C1272      O1275   1.269       .  A
C1272      C1285   1.457       .  S
Cd1273     O1280   2.376       .  S
Cd1273     O1278   2.529   1_455  S
Cd1273     O1274   2.484   1_455  S
Cd1273     O1275   2.430       .  S
C1276      O1280   1.266       .  A
C1276      C1295   1.456       .  S
C1281      C1282   1.413       .  A
C1281      C1286   1.391       .  A
C1281      H1288   1.079       .  S
C1283      C1284   1.397       .  A
C1283     Br1290   1.923       .  S
C1284      C1285   1.401       .  A
C1284      H1289   1.084       .  S
C1286     Br1287   1.918       .  S
C1291      C1292   1.392       .  A
C1291      C1296   1.391       .  A
C1291      H1298   1.084       .  S
C1293      C1294   1.386       .  A
C1293     Br1300   1.923       .  S
C1294      C1295   1.401       .  A
C1294      H1299   1.084       .  S
C1296     Br1297   1.923       .  S
C1301      C1302   1.392       .  A
C1301      C1306   1.380       .  A
C1301      H1308   1.085       .  S
C1302      C1303   1.408       .  A
C1303      C1304   1.394       .  A
C1303     Br1310   1.920       .  S
C1304      C1305   1.407       .  A
C1304      H1309   1.077       .  S
C1305      C1306   1.425       .  A
C1306     Br1307   1.928       .  S
C1311      C1312   1.395       .  A
C1311      C1316   1.374       .  A
C1311      H1318   1.083       .  S
C1312      C1313   1.395       .  A
C1313      C1314   1.389       .  A
C1313     Br1320   1.917       .  S
C1314      C1315   1.408       .  A
C1314      H1319   1.083       .  S
C1315      C1316   1.412       .  A
C1316     Br1317   1.928       .  S
C1321      C1322   1.407       .  A
C1321      C1326   1.392       .  A
C1321      H1328   1.082       .  S
C1322      C1323   1.412       .  A
C1323      C1324   1.397       .  A
C1324      C1325   1.404       .  A
C1324      H1329   1.083       .  S
C1325      C1326   1.410       .  A
C1326     Br1327   1.923       .  S
C1331      C1332   1.399       .  A
C1331      C1336   1.398       .  A
C1331      H1338   1.083       .  S
C1332      C1333   1.415       .  A
C1333      C1334   1.393       .  A
C1333     Br1340   1.923       .  S
C1334      C1335   1.397       .  A
C1334      H1339   1.084       .  S
C1335      C1336   1.411       .  A
C1336     Br1337   1.918       .  S
C1341      C1342   1.398       .  A
C1341      C1346   1.390       .  A
C1341      H1348   1.084       .  S
C1342      C1343   1.403       .  A
C1343      C1344   1.387       .  A
C1343     Br1350   1.921       .  S
C1344      C1345   1.407       .  A
C1344      H1349   1.081       .  S
C1345      C1346   1.419       .  A
C1346     Br1347   1.924       .  S
C1351      C1352   1.405       .  A
C1351      C1356   1.397       .  A
C1351      H1358   1.083       .  S
C1352      C1353   1.407       .  A
C1353      C1354   1.373       .  A
C1353     Br1360   1.929       .  S
C1354      C1355   1.397       .  A
C1354      H1359   1.082       .  S
C1355      C1356   1.402       .  A
C1356     Br1357   1.916       .  S
O1361      C1364   1.271   1_545  A
O1361     Cd1910   2.428   1_545  S
C1362      O1371   1.261       .  A
C1362      O1367   1.269       .  A
C1362      C1422   1.519       .  S
O1363      C1369   1.265       .  A
O1363     Cd1910   2.398   1_545  S
C1364      O1372   1.263       .  A
C1365      O1370   1.263       .  A
C1365      O1368   1.267       .  A
C1365      C1614   1.455       .  S
Cd1366     O1905   2.437       .  S
Cd1366     O1907   2.397       .  S
Cd1366     O1917   2.326       .  S
Cd1366     O1916   2.420       .  S
Cd1366     O1371   2.524       .  S
Cd1366     O1367   2.459       .  S
Cd1366     O1370   2.352       .  S
Cd1366     O1368   2.391       .  S
C1369      O1373   1.263       .  A
C1369      C1624   1.444       .  S
O1372     Cd1910   2.425       .  S
O1373     Cd1910   2.326   1_545  S
C1374      C1617   1.502       .  S
C1374      C1375   1.535       .  S
C1374      C1380   1.502       .  S
C1374      C1378   1.550       .  S
C1375      H1382   1.084       .  S
C1375      C1376   1.355       .  D
C1376      C1377   1.559       .  S
C1376      N1530   1.435       .  S
C1377      C1381   1.539       .  S
C1377      C1379   1.560       .  S
C1377      H1383   1.103       .  S
C1378      H1384   1.079       .  S
C1378      C1379   1.372       .  D
C1379      C1386   1.562       .  S
C1380      H1385   1.090       .  S
C1380      C1381   1.350       .  D
C1381      C1627   1.451       .  S
C1386      C1388   1.586       .  S
C1386      C1390   1.565       .  S
C1386      C1389   1.541       .  S
C1387      C1391   1.542       .  S
C1387      C1393   1.572       .  S
C1387      C1392   1.526       .  S
C1387      C1445   1.516       .  S
C1388      C1396   1.407       .  A
C1388      C1391   1.397       .  A
C1389      C1400   1.370       .  A
C1389      C1392   1.384       .  A
C1390      C1404   1.404       .  A
C1390      C1393   1.403       .  A
C1391      C1394   1.397       .  A
C1392      C1398   1.385       .  A
C1393      C1401   1.402       .  A
C1394      N1395   1.363       .  A
C1394      H1407   1.081       .  S
N1395      C1396   1.367       .  A
N1395      N1437   1.436       .  S
C1396      H1397   1.078       .  S
C1398      N1399   1.357       .  A
C1398      H1408   1.082       .  S
N1399      C1507   1.441       .  S
N1399      C1400   1.343       .  A
C1400      H1406   1.055       .  S
C1401      N1402   1.371       .  A
C1401      H1403   1.080       .  S
N1402      C1404   1.368       .  A
N1402      N1430   1.442       .  S
C1404      H1405   1.071       .  S
C1409      C1594   1.526       .  S
C1409      C1410   1.549       .  S
C1409      C1959   1.510   1_545  S
C1409      C1413   1.540       .  S
C1410      H1417   1.084       .  S
C1410      C1955   1.366   1_545  D
C1411      C1412   1.545       .  S
C1411      C1954   1.365       .  D
C1412      C1416   1.550       .  S
C1412      C1414   1.577       .  S
C1412      H1418   1.110       .  S
C1413      H1419   1.080       .  S
C1413      C1958   1.358   1_545  D
C1414      C1421   1.545       .  S
C1414      C1957   1.354       .  D
C1415      C1953   1.512       .  S
C1415      H1420   1.086       .  S
C1415      C1416   1.367       .  D
C1416      C1604   1.480       .  S
C1421      C1967   1.570       .  S
C1421      C1425   1.561       .  S
C1421      C1424   1.519       .  S
C1422      C1970   1.574       .  S
C1422      C1428   1.549       .  S
C1422      C1427   1.546       .  S
C1423      C1965   1.567   1_545  S
C1423      C1431   1.402       .  A
C1423      C1426   1.401       .  A
C1424      C1435   1.364       .  A
C1424      C1427   1.392       .  A
C1425      C1439   1.401       .  A
C1425      C1428   1.393       .  A
C1426      C1966   1.574   1_545  S
C1426      C1429   1.408       .  A
C1427      C1433   1.394       .  A
C1428      C1436   1.392       .  A
C1429      N1430   1.374       .  A
C1429      H1442   1.080       .  S
N1430      C1431   1.365       .  A
C1431      H1432   1.079       .  S
C1433      N1434   1.352       .  A
C1433      H1443   1.081       .  S
N1434      C1472   1.439       .  S
N1434      C1435   1.343       .  A
C1435      H1441   1.075       .  S
C1436      N1437   1.368       .  A
C1436      H1438   1.081       .  S
N1437      C1439   1.372       .  A
C1439      H1440   1.082       .  S
O1444      C1447   1.270       .  A
O1444     Cd1449   2.508       .  S
C1445      O1454   1.262       .  A
C1445      O1450   1.271       .  A
O1446      C1452   1.260       .  A
O1446     Cd1449   2.456       .  S
C1447      O1455   1.265       .  A
C1448      O1453   1.268       .  A
C1448      O1451   1.264       .  A
C1448      C1597   1.471       .  S
Cd1449     O1456   2.444       .  S
Cd1449     O1455   2.503       .  S
Cd1449     O1454   2.473       .  S
Cd1449     O1450   2.503       .  S
Cd1449     O1453   2.437       .  S
Cd1449     O1451   2.389       .  S
C1452      O1456   1.268       .  A
C1452      C1607   1.464       .  S
O1457      C1460   1.271   1_565  A
O1457     Cd1462   2.451   1_565  S
C1458      O1467   1.264       .  A
C1458      O1463   1.265       .  A
C1458      C1483   1.516       .  S
O1459      C1465   1.266       .  A
O1459     Cd1462   2.329       .  S
C1460      O1468   1.261       .  A
C1461      O1466   1.264       .  A
C1461      O1464   1.270       .  A
C1461      C1574   1.462       .  S
Cd1462     O1469   2.327       .  S
Cd1462     O1468   2.397       .  S
Cd1462     O2011   2.481   1_545  S
Cd1462     O2007   2.491       .  S
Cd1462     O2010   2.416   1_545  S
Cd1462     O2008   2.352   1_545  S
O1463     Cd2006   2.498       .  S
O1464     Cd2006   2.342       .  S
C1465      O1469   1.265       .  A
C1465      C1587   1.443       .  S
O1466     Cd2006   2.412       .  S
O1467     Cd2006   2.486       .  S
C1470      C1554   1.530       .  S
C1470      C1471   1.519       .  S
C1470      C1476   1.533       .  S
C1471      H1478   1.086       .  S
C1471      C2016   1.357       .  D
C1472      C1473   1.568       .  S
C1472      C2015   1.356       .  D
C1473      C1477   1.527       .  S
C1473      H1479   1.110       .  S
C1474      H1480   1.066       .  S
C1474      C2019   1.377       .  D
C1475      C1482   1.565   1_455  S
C1475      C2018   1.381       .  D
C1476      H2025   1.084       .  S
C1476      C2021   1.350       .  D
C1477      C2020   1.350       .  D
C1477      C1564   1.451       .  S
H1481      C2020   1.083       .  S
C1482      C2028   1.594       .  S
C1482      C1486   1.574       .  S
C1482      C1485   1.538       .  S
C1483      C2031   1.559       .  S
C1483      C1489   1.582       .  S
C1483      C1488   1.527       .  S
C1484      C2026   1.598       .  S
C1484      C1492   1.414       .  A
C1484      C1487   1.397       .  A
C1485      C1496   1.381       .  A
C1485      C1488   1.381       .  A
C1486      C1500   1.417       .  A
C1486      C1489   1.405       .  A
C1487      C2027   1.561       .  S
C1487      C1490   1.415       .  A
C1488      C1494   1.388       .  A
C1489      C1497   1.400       .  A
C1490      N1491   1.375       .  A
C1490      H1503   1.082       .  S
N1491      C1492   1.369       .  A
N1491      N1533   1.451       .  S
C1492      H1493   1.077       .  S
C1494      N1495   1.354       .  A
C1494      H1504   1.083       .  S
N1495      C1496   1.350       .  A
C1497      N1498   1.371       .  A
C1497      H1499   1.079       .  S
N1498      C1500   1.379       .  A
N1498      N1526   1.449       .  S
C1500      H1501   1.082       .  S
C1505      C1577   1.512       .  S
C1505      C1506   1.540       .  S
C1505      C1511   1.508       .  S
C1505      C1509   1.544       .  S
C1506      H1513   1.082       .  S
C1506      C1507   1.367       .  D
C1507      C1508   1.552       .  S
C1508      C1512   1.527       .  S
C1508      C1510   1.561       .  S
C1508      H1514   1.110       .  S
C1509      H1515   1.070       .  S
C1509      C1510   1.362       .  D
C1510      C1517   1.558       .  S
C1511      H1516   1.088       .  S
C1511      C1512   1.352       .  D
C1512      C1584   1.435       .  S
C1517      C1519   1.587       .  S
C1517      C1521   1.590       .  S
C1517      C1520   1.523       .  S
C1518      C1522   1.578       .  S
C1518      C1524   1.558       .  S
C1518      C1523   1.523       .  S
C1518      C1541   1.519       .  S
C1519      C1527   1.412       .  A
C1519      C1522   1.407       .  A
C1520      C1531   1.368       .  A
C1520      C1523   1.375       .  A
C1521      C1535   1.417       .  A
C1521      C1524   1.400       .  A
C1522      C1525   1.416       .  A
C1523      C1529   1.381       .  A
C1524      C1532   1.402       .  A
C1525      N1526   1.371       .  A
C1525      H1538   1.081       .  S
N1526      C1527   1.370       .  A
C1527      H1528   1.072       .  S
C1529      N1530   1.355       .  A
C1529      H1539   1.082       .  S
N1530      C1531   1.350       .  A
C1531      H1537   1.076       .  S
C1532      N1533   1.372       .  A
C1532      H1534   1.081       .  S
N1533      C1535   1.375       .  A
C1535      H1536   1.072       .  S
O1540     Cd1545   2.540   1_655  S
C1541      O1550   1.271       .  A
C1541      O1546   1.261       .  A
O1542      C1548   1.262       .  A
O1542     Cd1545   2.375       .  S
C1543      O1551   1.262       .  A
C1544      O1547   1.267       .  A
C1544      C1557   1.448       .  S
Cd1545     O1552   2.402       .  S
Cd1545     O1550   2.528   1_455  S
Cd1545     O1546   2.487   1_455  S
Cd1545     O1547   2.404       .  S
C1548      O1552   1.270       .  A
C1548      C1567   1.462       .  S
C1553      C1554   1.414       .  A
C1553      C1558   1.392       .  A
C1553      H1560   1.080       .  S
C1555      C1556   1.395       .  A
C1555     Br1562   1.923       .  S
C1556      C1557   1.400       .  A
C1556      H1561   1.084       .  S
C1558     Br1559   1.918       .  S
C1563      C1564   1.391       .  A
C1563      C1568   1.390       .  A
C1563      H1570   1.084       .  S
C1565      C1566   1.388       .  A
C1565     Br1572   1.923       .  S
C1566      C1567   1.401       .  A
C1566      H1571   1.084       .  S
C1568     Br1569   1.922       .  S
C1573      C1574   1.393       .  A
C1573      C1578   1.379       .  A
C1573      H1580   1.084       .  S
C1574      C1575   1.409       .  A
C1575      C1576   1.395       .  A
C1575     Br1582   1.920       .  S
C1576      C1577   1.407       .  A
C1576      H1581   1.077       .  S
C1577      C1578   1.424       .  A
C1578     Br1579   1.928       .  S
C1583      C1584   1.395       .  A
C1583      C1588   1.374       .  A
C1583      H1590   1.083       .  S
C1584      C1585   1.394       .  A
C1585      C1586   1.387       .  A
C1585     Br1592   1.917       .  S
C1586      C1587   1.407       .  A
C1586      H1591   1.084       .  S
C1587      C1588   1.411       .  A
C1588     Br1589   1.928       .  S
C1593      C1594   1.407       .  A
C1593      C1598   1.392       .  A
C1593      H1600   1.082       .  S
C1594      C1595   1.412       .  A
C1595      C1596   1.396       .  A
C1596      C1597   1.404       .  A
C1596      H1601   1.083       .  S
C1597      C1598   1.410       .  A
C1598     Br1599   1.923       .  S
C1603      C1604   1.400       .  A
C1603      C1608   1.399       .  A
C1603      H1610   1.083       .  S
C1604      C1605   1.415       .  A
C1605      C1606   1.393       .  A
C1605     Br1612   1.922       .  S
C1606      C1607   1.396       .  A
C1606      H1611   1.084       .  S
C1607      C1608   1.411       .  A
C1608     Br1609   1.917       .  S
C1613      C1614   1.398       .  A
C1613      C1618   1.388       .  A
C1613      H1620   1.084       .  S
C1614      C1615   1.403       .  A
C1615      C1616   1.384       .  A
C1615     Br1622   1.921       .  S
C1616      C1617   1.406       .  A
C1616      H1621   1.081       .  S
C1617      C1618   1.418       .  A
C1618     Br1619   1.924       .  S
C1623      C1624   1.405       .  A
C1623      C1628   1.396       .  A
C1623      H1630   1.083       .  S
C1624      C1625   1.407       .  A
C1625      C1626   1.372       .  A
C1625     Br1632   1.930       .  S
C1626      C1627   1.397       .  A
C1626      H1631   1.082       .  S
C1627      C1628   1.400       .  A
C1628     Br1629   1.916       .  S
O1633      C1636   1.271       .  A
C1634      O1643   1.262       .  A
C1634      O1639   1.269       .  A
C1634      C1694   1.527       .  S
O1635      C1641   1.265       .  A
C1636      O1644   1.263       .  A
C1636      C2004   1.453       .  S
C1637      O1642   1.263       .  A
C1637      O1640   1.268       .  A
C1637      C1886   1.459       .  S
Cd1638     O1643   2.541       .  S
Cd1638     O1639   2.467       .  S
Cd1638     O1642   2.368       .  S
Cd1638     O1640   2.401       .  S
C1641      O1645   1.263       .  A
C1641      C1896   1.444       .  S
C1646      C1889   1.508       .  S
C1646      C1647   1.536       .  S
C1646      C1652   1.503       .  S
C1646      C1650   1.553       .  S
C1647      H1654   1.084       .  S
C1647      C1648   1.356       .  D
C1648      C1649   1.558       .  S
C1648      N1802   1.437       .  S
C1649      C1653   1.539       .  S
C1649      C1651   1.561       .  S
C1649      H1655   1.103       .  S
C1650      H1656   1.079       .  S
C1650      C1651   1.374       .  D
C1651      C1658   1.568       .  S
C1652      H1657   1.090       .  S
C1652      C1653   1.351       .  D
C1653      C1899   1.449       .  S
C1658      C1660   1.589       .  S
C1658      C1662   1.573       .  S
C1658      C1661   1.541       .  S
C1659      C1663   1.542       .  S
C1659      C1665   1.571       .  S
C1659      C1664   1.527       .  S
C1659      C1717   1.516       .  S
C1660      C1668   1.410       .  A
C1660      C1663   1.396       .  A
C1661      C1672   1.369       .  A
C1661      C1664   1.385       .  A
C1662      C1676   1.409       .  A
C1662      C1665   1.405       .  A
C1663      C1666   1.399       .  A
C1664      C1670   1.385       .  A
C1665      C1673   1.402       .  A
C1666      N1667   1.363       .  A
C1666      H1679   1.081       .  S
N1667      C1668   1.368       .  A
N1667      N1709   1.438       .  S
C1668      H1669   1.078       .  S
C1670      N1671   1.357       .  A
C1670      H1680   1.082       .  S
N1671      C1779   1.442       .  S
N1671      C1672   1.343       .  A
C1672      H1678   1.056       .  S
C1673      N1674   1.369       .  A
C1673      H1675   1.080       .  S
N1674      C1676   1.370       .  A
N1674      N1702   1.444       .  S
C1676      H1677   1.070       .  S
C1681      C1866   1.526       .  S
C1681      C1682   1.549       .  S
C1681      C1685   1.538       .  S
C1682      H1689   1.083       .  S
C1683      C1684   1.548       .  S
C1684      C1688   1.548       .  S
C1684      C1686   1.578       .  S
C1684      H1690   1.110       .  S
C1685      H1691   1.080       .  S
C1686      C1693   1.549       .  S
C1687      H1692   1.086       .  S
C1687      C1688   1.366       .  D
C1688      C1876   1.478       .  S
C1693      C1697   1.565       .  S
C1693      C1696   1.520       .  S
C1694      C1700   1.552       .  S
C1694      C1699   1.547       .  S
C1695      C1703   1.404       .  A
C1695      C1698   1.399       .  A
C1696      C1707   1.364   1_565  A
C1696      C1699   1.391       .  A
C1697      C1711   1.404       .  A
C1697      C1700   1.396       .  A
C1698      C1701   1.408       .  A
C1699      C1705   1.395       .  A
C1700      C1708   1.394       .  A
C1701      N1702   1.374       .  A
C1701      H1714   1.079       .  S
N1702      C1703   1.368       .  A
C1703      H1704   1.079       .  S
C1705      N1706   1.353   1_565  A
C1705      H1715   1.080       .  S
N1706      C1744   1.440       .  S
N1706      C1707   1.344       .  A
C1707      H1713   1.075       .  S
C1708      N1709   1.368       .  A
C1708      H1710   1.081       .  S
N1709      C1711   1.374       .  A
C1711      H1712   1.081       .  S
O1716      C1719   1.269       .  A
O1716     Cd1721   2.492       .  S
C1717      O1726   1.262       .  A
C1717      O1722   1.270       .  A
O1718      C1724   1.261       .  A
O1718     Cd1721   2.466       .  S
C1719      O1727   1.265       .  A
C1719      C2087   1.480   1_554  S
C1720      O1725   1.268       .  A
C1720      O1723   1.266       .  A
C1720      C1869   1.471       .  S
Cd1721     O1728   2.421       .  S
Cd1721     O1727   2.498       .  S
Cd1721     O1726   2.478       .  S
Cd1721     O1722   2.500       .  S
Cd1721     O1725   2.429       .  S
Cd1721     O1723   2.404       .  S
C1724      O1728   1.267       .  A
C1724      C1879   1.459       .  S
O1729      C1732   1.270       .  A
O1729     Cd1734   2.454       .  S
C1730      O1739   1.265   1_545  A
C1730      O1735   1.265       .  A
C1730      C1755   1.517       .  S
O1731      C1737   1.265       .  A
O1731     Cd1734   2.340       .  S
C1732      O1740   1.261       .  A
C1732      C1908   1.454   1_554  S
C1733      O1738   1.264       .  A
C1733      O1736   1.270       .  A
C1733      C1846   1.463       .  S
Cd1734     O1741   2.322       .  S
Cd1734     O1740   2.409       .  S
C1737      O1741   1.265       .  A
C1737      C1859   1.442       .  S
C1742      C1826   1.528       .  S
C1742      C1743   1.519       .  S
C1742      C1748   1.533       .  S
C1743      H1750   1.086       .  S
C1744      C1745   1.569   1_545  S
C1745      C1749   1.528       .  S
C1745      H1751   1.110       .  S
C1746      H1752   1.065       .  S
C1747      C1754   1.569   1_455  S
C1749      C1836   1.449       .  S
C1754      C1758   1.572   1_545  S
C1754      C1757   1.535       .  S
C1755      C1761   1.581   1_545  S
C1755      C1760   1.526       .  S
C1756      C1764   1.413       .  A
C1756      C1759   1.398       .  A
C1757      C1768   1.376       .  A
C1757      C1760   1.379       .  A
C1758      C1772   1.416       .  A
C1758      C1761   1.404       .  A
C1759      C1762   1.414       .  A
C1760      C1766   1.388       .  A
C1761      C1769   1.400       .  A
C1762      N1763   1.374       .  A
C1762      H1775   1.082       .  S
N1763      C1764   1.368       .  A
N1763      N1805   1.449       .  S
C1764      H1765   1.077       .  S
C1766      N1767   1.354       .  A
C1766      H1776   1.083       .  S
N1767      C1768   1.351       .  A
C1769      N1770   1.370       .  A
C1769      H1771   1.079       .  S
N1770      C1772   1.379       .  A
N1770      N1798   1.449       .  S
C1772      H1773   1.082       .  S
C1777      C1849   1.514       .  S
C1777      C1778   1.543       .  S
C1777      C1783   1.507       .  S
C1777      C1781   1.543       .  S
C1778      H1785   1.082       .  S
C1778      C1779   1.369       .  D
C1779      C1780   1.550       .  S
C1780      C1784   1.527       .  S
C1780      C1782   1.561       .  S
C1780      H1786   1.110       .  S
C1781      H1787   1.072       .  S
C1781      C1782   1.361       .  D
C1782      C1789   1.554       .  S
C1783      H1788   1.088       .  S
C1783      C1784   1.352       .  D
C1784      C1856   1.436       .  S
C1789      C1791   1.584       .  S
C1789      C1793   1.586       .  S
C1789      C1792   1.525       .  S
C1790      C1794   1.579       .  S
C1790      C1796   1.557       .  S
C1790      C1795   1.523       .  S
C1790      C1813   1.516       .  S
C1791      C1799   1.411       .  A
C1791      C1794   1.407       .  A
C1792      C1803   1.369       .  A
C1792      C1795   1.374       .  A
C1793      C1807   1.414       .  A
C1793      C1796   1.399       .  A
C1794      C1797   1.416       .  A
C1795      C1801   1.381       .  A
C1796      C1804   1.401       .  A
C1797      N1798   1.371       .  A
C1797      H1810   1.081       .  S
N1798      C1799   1.370       .  A
C1799      H1800   1.073       .  S
C1801      N1802   1.355       .  A
C1801      H1811   1.082       .  S
N1802      C1803   1.351       .  A
C1803      H1809   1.076       .  S
C1804      N1805   1.372       .  A
C1804      H1806   1.081       .  S
N1805      C1807   1.374       .  A
C1807      H1808   1.071       .  S
O1812     Cd1817   2.549   1_655  S
C1813      O1822   1.272       .  A
C1813      O1818   1.260       .  A
O1814      C1820   1.264       .  A
O1814     Cd1817   2.390       .  S
C1815      O1823   1.262       .  A
C1815      C1991   1.480       .  S
C1816      O1819   1.268       .  A
C1816      C1829   1.452       .  S
Cd1817     O1824   2.386       .  S
Cd1817     O1822   2.525   1_455  S
Cd1817     O1818   2.472   1_455  S
Cd1817     O1819   2.426       .  S
C1820      O1824   1.270       .  A
C1820      C1839   1.465       .  S
C1825      C1826   1.413       .  A
C1825      C1830   1.390       .  A
C1825      H1832   1.079       .  S
C1827      C1828   1.395       .  A
C1827     Br1834   1.923       .  S
C1828      C1829   1.401       .  A
C1828      H1833   1.084       .  S
C1830     Br1831   1.919       .  S
C1835      C1836   1.394       .  A
C1835      C1840   1.392       .  A
C1835      H1842   1.084       .  S
C1837      C1838   1.387       .  A
C1837     Br1844   1.921   1_465  S
C1838      C1839   1.402       .  A
C1838      H1843   1.084       .  S
C1840     Br1841   1.923       .  S
C1845      C1846   1.392       .  A
C1845      C1850   1.380       .  A
C1845      H1852   1.085       .  S
C1846      C1847   1.409       .  A
C1847      C1848   1.396       .  A
C1847     Br1854   1.920       .  S
C1848      C1849   1.407       .  A
C1848      H1853   1.078       .  S
C1849      C1850   1.425       .  A
C1850     Br1851   1.928       .  S
C1855      C1856   1.395       .  A
C1855      C1860   1.373       .  A
C1855      H1862   1.083       .  S
C1856      C1857   1.396       .  A
C1857      C1858   1.389       .  A
C1857     Br1864   1.917       .  S
C1858      C1859   1.407       .  A
C1858      H1863   1.084       .  S
C1859      C1860   1.410       .  A
C1860     Br1861   1.928       .  S
C1865      C1866   1.408       .  A
C1865      C1870   1.393       .  A
C1865      H1872   1.082       .  S
C1866      C1867   1.413       .  A
C1867      C1868   1.395       .  A
C1868      C1869   1.404       .  A
C1868      H1873   1.083       .  S
C1869      C1870   1.409       .  A
C1870     Br1871   1.922       .  S
C1875      C1876   1.400       .  A
C1875      C1880   1.398       .  A
C1875      H1882   1.083       .  S
C1876      C1877   1.415       .  A
C1877      C1878   1.393       .  A
C1877     Br1884   1.922       .  S
C1878      C1879   1.395       .  A
C1878      H1883   1.084       .  S
C1879      C1880   1.407       .  A
C1880     Br1881   1.916       .  S
C1885      C1886   1.398       .  A
C1885      C1890   1.390       .  A
C1885      H1892   1.084       .  S
C1886      C1887   1.404       .  A
C1887      C1888   1.387       .  A
C1887     Br1894   1.922       .  S
C1888      C1889   1.408       .  A
C1888      H1893   1.081       .  S
C1889      C1890   1.420       .  A
C1890     Br1891   1.924       .  S
C1895      C1896   1.405       .  A
C1895      C1900   1.396       .  A
C1895      H1902   1.083       .  S
C1896      C1897   1.407       .  A
C1897      C1898   1.371       .  A
C1897     Br1904   1.930       .  S
C1898      C1899   1.395       .  A
C1898      H1903   1.082       .  S
C1899      C1900   1.400       .  A
C1900     Br1901   1.917       .  S
O1905      C1908   1.271       .  A
C1906      O1915   1.262       .  A
C1906      O1911   1.269       .  A
C1906      C1966   1.523       .  S
O1907      C1913   1.264       .  A
C1908      O1916   1.263       .  A
C1909      O1914   1.263       .  A
C1909      O1912   1.267       .  A
C1909      C2158   1.457       .  S
Cd1910     O1915   2.529       .  S
Cd1910     O1911   2.461       .  S
Cd1910     O1914   2.367       .  S
Cd1910     O1912   2.392       .  S
C1913      O1917   1.263       .  A
C1913      C2168   1.441       .  S
C1918      C2161   1.504       .  S
C1918      C1919   1.537       .  S
C1918      C1924   1.502       .  S
C1918      C1922   1.552       .  S
C1919      H1926   1.084       .  S
C1919      C1920   1.356       .  D
C1920      C1921   1.558       .  S
C1920      N2074   1.438       .  S
C1921      C1925   1.537       .  S
C1921      C1923   1.563       .  S
C1921      H1927   1.103       .  S
C1922      H1928   1.080       .  S
C1922      C1923   1.373       .  D
C1923      C1930   1.568       .  S
C1924      H1929   1.090       .  S
C1924      C1925   1.350       .  D
C1925      C2171   1.446       .  S
C1930      C1932   1.591       .  S
C1930      C1934   1.572       .  S
C1930      C1933   1.541       .  S
C1931      C1935   1.547       .  S
C1931      C1937   1.574       .  S
C1931      C1936   1.524       .  S
C1931      C1989   1.517       .  S
C1932      C1940   1.412       .  A
C1932      C1935   1.398       .  A
C1933      C1944   1.369       .  A
C1933      C1936   1.384       .  A
C1934      C1948   1.408       .  A
C1934      C1937   1.404       .  A
C1935      C1938   1.401       .  A
C1936      C1942   1.384       .  A
C1937      C1945   1.406       .  A
C1938      N1939   1.364       .  A
C1938      H1951   1.081       .  S
N1939      C1940   1.369       .  A
N1939      N1981   1.441       .  S
C1940      H1941   1.078       .  S
C1942      N1943   1.356       .  A
C1942      H1952   1.082       .  S
N1943      C2051   1.440       .  S
N1943      C1944   1.342       .  A
C1944      H1950   1.055       .  S
C1945      N1946   1.371       .  A
C1945      H1947   1.080       .  S
N1946      C1948   1.370       .  A
N1946      N1974   1.445       .  S
C1948      H1949   1.069       .  S
C1953      C2138   1.526       .  S
C1953      C1954   1.548       .  S
C1953      C1957   1.536       .  S
C1954      H1961   1.084       .  S
C1955      C1956   1.547       .  S
C1956      C1960   1.547       .  S
C1956      C1958   1.577       .  S
C1956      H1962   1.110       .  S
C1957      H1963   1.080       .  S
C1958      C1965   1.550       .  S
C1959      H1964   1.086       .  S
C1959      C1960   1.365       .  D
C1960      C2148   1.476       .  S
C1965      C1969   1.568       .  S
C1965      C1968   1.521       .  S
C1966      C1972   1.554       .  S
C1966      C1971   1.545       .  S
C1967      C1975   1.406       .  A
C1967      C1970   1.398       .  A
C1968      C1979   1.366   1_565  A
C1968      C1971   1.390       .  A
C1969      C1983   1.406       .  A
C1969      C1972   1.395       .  A
C1970      C1973   1.407       .  A
C1971      C1977   1.394       .  A
C1972      C1980   1.396       .  A
C1973      N1974   1.374       .  A
C1973      H1986   1.078       .  S
N1974      C1975   1.368       .  A
C1975      H1976   1.080       .  S
C1977      N1978   1.352   1_565  A
C1977      H1987   1.081       .  S
N1978      C2016   1.440       .  S
N1978      C1979   1.344       .  A
C1979      H1985   1.076       .  S
C1980      N1981   1.369       .  A
C1980      H1982   1.081       .  S
N1981      C1983   1.375       .  A
C1983      H1984   1.081       .  S
O1988      C1991   1.270       .  A
O1988     Cd1993   2.502       .  S
C1989      O1998   1.262       .  A
C1989      O1994   1.270       .  A
O1990      C1996   1.260       .  A
O1990     Cd1993   2.455       .  S
C1991      O1999   1.265       .  A
C1992      O1997   1.268       .  A
C1992      O1995   1.265       .  A
C1992      C2141   1.474       .  S
Cd1993     O2000   2.445       .  S
Cd1993     O1999   2.490       .  S
Cd1993     O1998   2.473       .  S
Cd1993     O1994   2.510       .  S
Cd1993     O1997   2.440       .  S
Cd1993     O1995   2.405       .  S
C1996      O2000   1.267       .  A
C1996      C2151   1.463       .  S
O2001      C2004   1.270       .  A
O2001     Cd2006   2.445       .  S
C2002      O2011   1.265   1_545  A
C2002      O2007   1.265       .  A
C2002      C2027   1.514       .  S
O2003      C2009   1.265       .  A
O2003     Cd2006   2.340       .  S
C2004      O2012   1.261       .  A
C2005      O2010   1.264       .  A
C2005      O2008   1.270       .  A
C2005      C2118   1.461       .  S
Cd2006     O2013   2.319       .  S
Cd2006     O2012   2.411       .  S
C2009      O2013   1.264       .  A
C2009      C2131   1.445       .  S
C2014      C2098   1.528       .  S
C2014      C2015   1.519       .  S
C2014      C2020   1.534       .  S
C2015      H2022   1.086       .  S
C2016      C2017   1.570       .  S
C2017      C2021   1.529       .  S
C2017      H2023   1.110   1_545  S
C2018      H2024   1.064       .  S
C2019      C2026   1.565   1_455  S
C2021      C2108   1.453   1_545  S
C2026      C2030   1.573   1_545  S
C2026      C2029   1.534       .  S
C2027      C2033   1.580   1_545  S
C2027      C2032   1.528       .  S
C2028      C2036   1.412       .  A
C2028      C2031   1.395       .  A
C2029      C2040   1.376       .  A
C2029      C2032   1.378       .  A
C2030      C2044   1.417       .  A
C2030      C2033   1.403       .  A
C2031      C2034   1.415       .  A
C2032      C2038   1.391       .  A
C2033      C2041   1.399       .  A
C2034      N2035   1.375       .  A
C2034      H2047   1.082       .  S
N2035      C2036   1.366       .  A
N2035      N2077   1.449       .  S
C2036      H2037   1.077       .  S
C2038      N2039   1.355       .  A
C2038      H2048   1.082       .  S
N2039      C2040   1.350       .  A
C2041      N2042   1.370       .  A
C2041      H2043   1.079       .  S
N2042      C2044   1.379       .  A
N2042      N2070   1.449       .  S
C2044      H2045   1.082       .  S
C2049      C2121   1.514       .  S
C2049      C2050   1.541       .  S
C2049      C2055   1.507       .  S
C2049      C2053   1.545       .  S
C2050      H2057   1.082       .  S
C2050      C2051   1.368       .  D
C2051      C2052   1.550       .  S
C2052      C2056   1.527       .  S
C2052      C2054   1.561       .  S
C2052      H2058   1.110       .  S
C2053      H2059   1.073       .  S
C2053      C2054   1.363       .  D
C2054      C2061   1.557       .  S
C2055      H2060   1.088       .  S
C2055      C2056   1.353       .  D
C2056      C2128   1.437       .  S
C2061      C2063   1.582       .  S
C2061      C2065   1.585       .  S
C2061      C2064   1.525       .  S
C2062      C2066   1.580       .  S
C2062      C2068   1.560       .  S
C2062      C2067   1.526       .  S
C2062      C2085   1.521       .  S
C2063      C2071   1.409       .  A
C2063      C2066   1.406       .  A
C2064      C2075   1.369       .  A
C2064      C2067   1.376       .  A
C2065      C2079   1.414       .  A
C2065      C2068   1.400       .  A
C2066      C2069   1.416       .  A
C2067      C2073   1.383       .  A
C2068      C2076   1.402       .  A
C2069      N2070   1.371       .  A
C2069      H2082   1.081       .  S
N2070      C2071   1.369       .  A
C2071      H2072   1.073       .  S
C2073      N2074   1.357       .  A
C2073      H2083   1.082       .  S
N2074      C2075   1.350       .  A
C2075      H2081   1.076       .  S
C2076      N2077   1.373       .  A
C2076      H2078   1.081       .  S
N2077      C2079   1.373       .  A
C2079      H2080   1.072       .  S
O2084     Cd2089   2.539   1_655  S
C2085      O2094   1.271       .  A
C2085      O2090   1.261       .  A
O2086      C2092   1.263       .  A
O2086     Cd2089   2.388       .  S
C2087      O2095   1.262       .  A
C2088      O2091   1.268       .  A
C2088      C2101   1.456       .  S
Cd2089     O2096   2.390       .  S
Cd2089     O2094   2.544   1_455  S
Cd2089     O2090   2.474   1_455  S
Cd2089     O2091   2.436       .  S
C2092      O2096   1.269       .  A
C2092      C2111   1.464       .  S
C2097      C2098   1.414       .  A
C2097      C2102   1.391       .  A
C2097      H2104   1.080       .  S
C2099      C2100   1.395       .  A
C2099     Br2106   1.922       .  S
C2100      C2101   1.401       .  A
C2100      H2105   1.084       .  S
C2102     Br2103   1.919       .  S
C2107      C2108   1.395       .  A
C2107      C2112   1.394       .  A
C2107      H2114   1.084       .  S
C2109      C2110   1.387       .  A
C2109     Br2116   1.922   1_465  S
C2110      C2111   1.403       .  A
C2110      H2115   1.084       .  S
C2112     Br2113   1.923       .  S
C2117      C2118   1.391       .  A
C2117      C2122   1.380       .  A
C2117      H2124   1.085       .  S
C2118      C2119   1.408       .  A
C2119      C2120   1.395       .  A
C2119     Br2126   1.919       .  S
C2120      C2121   1.407       .  A
C2120      H2125   1.077       .  S
C2121      C2122   1.425       .  A
C2122     Br2123   1.926       .  S
C2127      C2128   1.395       .  A
C2127      C2132   1.373       .  A
C2127      H2134   1.083       .  S
C2128      C2129   1.394       .  A
C2129      C2130   1.388       .  A
C2129     Br2136   1.917       .  S
C2130      C2131   1.409       .  A
C2130      H2135   1.083       .  S
C2131      C2132   1.411       .  A
C2132     Br2133   1.928       .  S
C2137      C2138   1.408       .  A
C2137      C2142   1.393       .  A
C2137      H2144   1.082       .  S
C2138      C2139   1.411       .  A
C2139      C2140   1.397       .  A
C2140      C2141   1.405       .  A
C2140      H2145   1.083       .  S
C2141      C2142   1.411       .  A
C2142     Br2143   1.923       .  S
C2147      C2148   1.398       .  A
C2147      C2152   1.397       .  A
C2147      H2154   1.083       .  S
C2148      C2149   1.414       .  A
C2149      C2150   1.393       .  A
C2149     Br2156   1.923       .  S
C2150      C2151   1.397       .  A
C2150      H2155   1.083       .  S
C2151      C2152   1.410       .  A
C2152     Br2153   1.915       .  S
C2157      C2158   1.399       .  A
C2157      C2162   1.390       .  A
C2157      H2164   1.084       .  S
C2158      C2159   1.403       .  A
C2159      C2160   1.385       .  A
C2159     Br2166   1.920       .  S
C2160      C2161   1.406       .  A
C2160      H2165   1.081       .  S
C2161      C2162   1.418       .  A
C2162     Br2163   1.924       .  S
C2167      C2168   1.405       .  A
C2167      C2172   1.396       .  A
C2167      H2174   1.083       .  S
C2168      C2169   1.406       .  A
C2169      C2170   1.370       .  A
C2169     Br2176   1.930       .  S
C2170      C2171   1.395       .  A
C2170      H2175   1.082       .  S
C2171      C2172   1.400       .  A
C2172     Br2173   1.917       .  S
