geometry optimzed in LAMMPS
_audit_creation_date              2020-12-01 
_audit_creation_method            'lammps2cif' 
_symmetry_space_group_name_H-M    'P1' 
_symmetry_Int_Tables_number       1 
_symmetry_cell_setting            triclinic 
loop_ 
_symmetry_equiv_pos_as_xyz 
  x,y,z 
_cell_length_a                    48.95150171 
_cell_length_b                    36.91679865880568 
_cell_length_c                    35.92322723727783 
_cell_angle_alpha                 90.40316922580915 
_cell_angle_beta                  89.42930237098577 
_cell_angle_gamma                 90.14033811536892 
loop_ 
_atom_site_label 
_atom_site_type_symbol 
_atom_site_fract_x 
_atom_site_fract_y 
_atom_site_fract_z 
_atom_site_charge 
O1          O  0.64350479  0.45626070  0.96193824    -0.73000
O2          O  0.56174684  0.44724758  0.95949649    -0.74000
O3          O  0.60133450  0.48493388  0.91800819    -0.62600
O4          O  0.60337801  0.41712061  0.00409669    -0.71100
O5          O  0.59980942  0.46407031  0.04281573    -0.70600
O6          O  0.59816169  0.53268008  0.95542448    -0.61900
O7          O  0.55925269  0.49437003  0.99752451    -0.74400
O8          O  0.63988941  0.50255759  0.00157526    -0.73100
Cu9        Cu  0.60281332  0.44973783  0.95958987     1.04600
Cu10       Cu  0.59931890  0.50003114  0.00073785     1.04300
C11         C  0.65443398  0.48084239  0.98213441     0.93200
C12         C  0.54742310  0.47023096  0.97777510     0.92300
C13         C  0.59788335  0.51887718  0.92264865     0.84400
C14         C  0.60102498  0.42988154  0.03707404     0.90700
O15         O  0.37617327  0.52909471  0.94977814    -0.73000
O16         O  0.37503359  0.47579956  0.04643486    -0.74000
O17         O  0.41572055  0.50126135  0.99734835    -0.62600
O18         O  0.33430786  0.50366186  0.99836980    -0.71100
O19         O  0.33357345  0.45141009  0.96730936    -0.70600
O20         O  0.41547937  0.44895151  0.96735820    -0.61900
O21         O  0.37429215  0.42317616  0.01660898    -0.74400
O22         O  0.37616885  0.47699967  0.91880838    -0.73100
Cu23       Cu  0.37518361  0.50415966  0.99906205     1.04600
Cu24       Cu  0.37466124  0.44821246  0.96647072     1.04300
C25         C  0.37750018  0.51159261  0.91902108     0.93200
C26         C  0.37573703  0.44126515  0.04707243     0.92300
C27         C  0.42870000  0.47526724  0.98191468     0.84400
C28         C  0.32111692  0.47806865  0.98262336     0.90700
C29         C  0.37644238  0.60140965  0.71741284     0.86400
C30         C  0.37123062  0.64188891  0.72552110    -0.53800
C31         C  0.38560519  0.65588464  0.75481279     0.09300
C32         C  0.40405964  0.62768138  0.77351001     0.20300
C33         C  0.40788479  0.59835652  0.71298238    -0.54600
C34         C  0.42238279  0.61339013  0.74149173     0.09400
C35         C  0.37145340  0.58149708  0.75417143    -0.54100
C36         C  0.38537013  0.59532498  0.78362200     0.10000
H37         H  0.35942064  0.65884078  0.70708207     0.14500
H38         H  0.41556860  0.63883747  0.79750468     0.00200
H39         H  0.41806472  0.58460023  0.68996007     0.14800
H40         H  0.35926608  0.55704606  0.75651345     0.14600
C41         C  0.38038904  0.36048584  0.25414373     0.86400
C42         C  0.38181038  0.31919261  0.24788665    -0.53800
C43         C  0.39641830  0.30811867  0.21693938     0.09300
C44         C  0.41003731  0.34019632  0.19670071     0.20300
C45         C  0.41085615  0.37076313  0.25682168    -0.54600
C46         C  0.42642626  0.35955396  0.22736420     0.09400
C47         C  0.37118455  0.37654424  0.21717295    -0.54100
C48         C  0.38665475  0.36614485  0.18730018     0.10000
H49         H  0.37278202  0.29997406  0.26700190     0.14500
H50         H  0.42230390  0.33345685  0.17187615     0.00200
H51         H  0.41960891  0.38490114  0.28034229     0.14800
H52         H  0.35466329  0.39599513  0.21508511     0.14600
N53         N  0.31572122  0.42996880  0.44740600    -0.27400
N54         N  0.29227508  0.42370032  0.43057736    -0.35200
C55         C  0.29723973  0.41065281  0.39621451     0.01000
C56         C  0.32518353  0.40875661  0.39079958     0.07000
C57         C  0.33628860  0.42062111  0.42414141    -0.06100
H58         H  0.28160504  0.40425142  0.37609605     0.07600
H59         H  0.35761399  0.42257512  0.43118771     0.08800
Cu60       Cu  0.25445802  0.43545159  0.45313854     0.44200
Cu61       Cu  0.31864999  0.45558837  0.49913185     0.42000
Cu62       Cu  0.25441511  0.49425544  0.53230656     0.43900
N63         N  0.21917009  0.45388511  0.47841281    -0.34800
N64         N  0.21906996  0.47640650  0.50716112    -0.29000
C65         C  0.19309264  0.48456125  0.51628580    -0.05100
C66         C  0.17627887  0.46601281  0.49213145     0.07100
C67         C  0.19331403  0.44688138  0.46846790     0.00900
H68         H  0.18697526  0.50269305  0.53862282     0.08500
H69         H  0.18742305  0.42969942  0.44535057     0.07600
N70         N  0.29189150  0.50509562  0.55584359    -0.36200
N71         N  0.31523063  0.49027288  0.54501264    -0.28400
C72         C  0.33531034  0.50281384  0.56705276    -0.03600
C73         C  0.32407164  0.52718620  0.59252164     0.05000
C74         C  0.29647390  0.52751064  0.58467807     0.03100
H75         H  0.35633169  0.49416478  0.56490867     0.08200
H76         H  0.28079113  0.54313259  0.59882275     0.07000
C77         C  0.40446145  0.86346362  0.70663731     0.86400
C78         C  0.39563241  0.88282874  0.74288555    -0.53800
C79         C  0.40766744  0.87006104  0.77396780     0.09300
C80         C  0.42647994  0.83732748  0.76683797     0.20300
C81         C  0.43575012  0.86468182  0.70688894    -0.54600
C82         C  0.44799974  0.85168963  0.73853713     0.09400
C83         C  0.39685232  0.82393485  0.71415913    -0.54100
C84         C  0.40902233  0.80952815  0.74450750     0.10000
H85         H  0.38127213  0.90514631  0.74445428     0.14500
H86         H  0.43392572  0.82675259  0.79325704     0.00200
H87         H  0.44704107  0.87464880  0.68291051     0.14800
H88         H  0.38316199  0.80818048  0.69691670     0.14600
C89         C  0.39480668  0.09605572  0.24667494     0.86400
C90         C  0.39013428  0.07666577  0.20956700    -0.53800
C91         C  0.40188352  0.09307654  0.17978501     0.09300
C92         C  0.41803097  0.12746272  0.18945882     0.20300
C93         C  0.42623912  0.09958413  0.24930413    -0.54600
C94         C  0.43837781  0.11591102  0.21953386     0.09400
C95         C  0.38591252  0.13571913  0.24105624    -0.54100
C96         C  0.39746348  0.15216251  0.21052025     0.10000
H97         H  0.37889675  0.05133521  0.20715673     0.14500
H98         H  0.42802741  0.13967093  0.16467162     0.00200
H99         H  0.43826112  0.08981447  0.27230314     0.14800
H100        H  0.37334778  0.15033475  0.26105863     0.14600
N101        N  0.33512356  0.94949766  0.52916593    -0.27400
N102        N  0.31211078  0.94569103  0.54829528    -0.35200
C103        C  0.31789271  0.93156998  0.58173227     0.01000
C104        C  0.34581507  0.92633790  0.58320416     0.07000
C105        C  0.35609162  0.93773935  0.54948654    -0.06100
H106        H  0.30291936  0.92515520  0.60306462     0.07600
H107        H  0.37723879  0.93765898  0.54041567     0.08800
Cu108      Cu  0.27417693  0.95745671  0.52612482     0.44200
Cu109      Cu  0.33733617  0.97026040  0.47657630     0.42000
Cu110      Cu  0.27431108  0.97589082  0.42643519     0.43900
N111        N  0.23916366  0.96287658  0.49449953    -0.34800
N112        N  0.23920880  0.96737638  0.45797435    -0.29000
C113        C  0.21323525  0.96862987  0.44612291    -0.05100
C114        C  0.19618056  0.96512310  0.47670855     0.07100
C115        C  0.21317527  0.96179312  0.50690761     0.00900
H116        H  0.20726276  0.97347345  0.41767170     0.08500
H117        H  0.20711942  0.95901163  0.53580599     0.07600
N118        N  0.31195331  0.99109049  0.40463114    -0.36200
N119        N  0.33477669  0.99036773  0.42382920    -0.28400
C120        C  0.35505028  0.00532067  0.40376926    -0.03600
C121        C  0.34474024  0.01532152  0.36968387     0.05000
C122        C  0.31723172  0.00605992  0.37140132     0.03100
H123        H  0.37540137  0.00987531  0.41432504     0.08200
H124        H  0.30200088  0.01069836  0.35043541     0.07000
O125        O  0.57409668  0.95146064  0.98538437    -0.73000
O126        O  0.65507811  0.95199553  0.99513679    -0.74000
O127        O  0.61122509  0.98019764  0.03717643    -0.62600
O128        O  0.61776505  0.92332228  0.94194481    -0.71100
O129        O  0.61869999  0.97508308  0.91119436    -0.70600
O130        O  0.61399217  0.03174601  0.00624305    -0.61900
O131        O  0.65727826  0.00256510  0.96197196    -0.74400
O132        O  0.57569150  0.00372846  0.95539898    -0.73100
Cu133      Cu  0.61456065  0.94994002  0.99099534     1.04600
Cu134      Cu  0.61660236  0.00507040  0.95756249     1.04300
C135        C  0.56201103  0.97750133  0.96931223     0.93200
C136        C  0.66888296  0.97729831  0.97996505     0.92300
C137        C  0.61094921  0.01476734  0.03685851     0.84400
C138        C  0.61857843  0.94046423  0.91119231     0.90700
O139        O  0.38913918  0.92946166  0.94201637    -0.73000
O140        O  0.39322480  0.98132617  0.03975993    -0.74000
O141        O  0.34964634  0.95605731  0.99332836    -0.62600
O142        O  0.43180539  0.95540008  0.98740303    -0.71100
O143        O  0.43080494  0.00796361  0.95797551    -0.70600
O144        O  0.34916818  0.00958463  0.96548388    -0.61900
O145        O  0.39287385  0.03402896  0.01052635    -0.74400
O146        O  0.38822707  0.98203202  0.91248917    -0.73100
Cu147      Cu  0.39083044  0.95372553  0.99170137     1.04600
Cu148      Cu  0.39010171  0.01023026  0.96059353     1.04300
C149        C  0.38877961  0.94738194  0.91184019     0.93200
C150        C  0.39467860  0.01582646  0.04052523     0.92300
C151        C  0.33652913  0.98292830  0.98018934     0.84400
C152        C  0.44423823  0.98194631  0.97197407     0.90700
C153        C  0.61326449  0.85218034  0.70265224     0.86400
C154        C  0.61545590  0.81301882  0.71599082    -0.53800
C155        C  0.60064368  0.80559727  0.74739799     0.09300
C156        C  0.58559109  0.83880565  0.76366209     0.20300
C157        C  0.58202195  0.85834646  0.69960267    -0.54600
C158        C  0.56751021  0.85231479  0.73172178     0.09400
C159        C  0.62121090  0.87623073  0.73623073    -0.54100
C160        C  0.60715442  0.86864470  0.76818389     0.10000
H161        H  0.62522388  0.79191264  0.69938910     0.14500
H162        H  0.57463349  0.83318159  0.79019690     0.00200
H163        H  0.57211460  0.86630193  0.67407811     0.14800
H164        H  0.63584395  0.89817540  0.73497973     0.14600
C165        C  0.60068965  0.09877206  0.24274551     0.86400
C166        C  0.60462400  0.13969925  0.23747160    -0.53800
C167        C  0.59189523  0.15369163  0.20710519     0.09300
C168        C  0.57639485  0.12500775  0.18391505     0.20300
C169        C  0.56942666  0.09262141  0.24215241    -0.54600
C170        C  0.55655351  0.10690686  0.21188498     0.09400
C171        C  0.60996458  0.08170706  0.20532061    -0.54100
C172        C  0.59785404  0.09556287  0.17468151     0.10000
H173        H  0.61534685  0.15659736  0.25746313     0.14500
H174        H  0.56604931  0.13633401  0.15922787     0.00200
H175        H  0.55820089  0.07959832  0.26458388     0.14800
H176        H  0.62275758  0.05788197  0.20268040     0.14600
N177        N  0.66734760  0.92621091  0.50784844    -0.27400
N178        N  0.69134071  0.91320994  0.51766105    -0.35200
C179        C  0.68844330  0.89419854  0.54919770     0.01000
C180        C  0.66126562  0.89485577  0.55997947     0.07000
C181        C  0.64850830  0.91577066  0.53324743    -0.06100
H182        H  0.70517708  0.88217232  0.56416895     0.07600
H183        H  0.62754759  0.92491527  0.53352093     0.08800
Cu184      Cu  0.72790789  0.92716390  0.49262491     0.44200
Cu185      Cu  0.66240779  0.96092816  0.46248171     0.42000
Cu186      Cu  0.72572435  0.00640462  0.43574097     0.43900
N187        N  0.76243225  0.95496714  0.47600485    -0.34800
N188        N  0.76170845  0.98575324  0.45746721    -0.29000
C189        C  0.78732964  0.99885438  0.45426084    -0.05100
C190        C  0.80478941  0.97479985  0.47126046     0.07100
C191        C  0.78842141  0.94724051  0.48451988     0.00900
H192        H  0.79287937  0.02351860  0.43991325     0.08500
H193        H  0.79481364  0.92378130  0.50005143     0.07600
N194        N  0.68828006  0.01551500  0.41043945    -0.36200
N195        N  0.66536011  0.99820214  0.41884697    -0.28400
C196        C  0.64581480  0.00853114  0.39488790    -0.03600
C197        C  0.65706907  0.03321072  0.37005174     0.05000
C198        C  0.68386701  0.03739113  0.38135332     0.03100
H199        H  0.62511125  0.99822583  0.39494723     0.08200
H200        H  0.69918270  0.05510807  0.36951969     0.07000
C201        C  0.58620542  0.59547876  0.71948203     0.86400
C202        C  0.59612210  0.58384254  0.75769462    -0.53800
C203        C  0.58311631  0.59995012  0.78710550     0.09300
C204        C  0.56078254  0.62727423  0.77539955     0.20300
C205        C  0.55495588  0.58885926  0.72077802    -0.54600
C206        C  0.54134105  0.60530319  0.74980302     0.09400
C207        C  0.58804474  0.63699320  0.71912708    -0.54100
C208        C  0.57551000  0.65365781  0.74861751     0.10000
H209        H  0.61093268  0.56227476  0.76122258     0.14500
H210        H  0.55056162  0.64161739  0.79884012     0.00200
H211        H  0.54394449  0.57492586  0.69884261     0.14800
H212        H  0.59839936  0.65224250  0.69750287     0.14600
C213        C  0.58869403  0.36771887  0.24527813     0.86400
C214        C  0.59906434  0.37776738  0.20588924    -0.53800
C215        C  0.58573848  0.36078477  0.17722492     0.09300
C216        C  0.56224456  0.33591030  0.19095612     0.20300
C217        C  0.55837192  0.37646611  0.24448690    -0.54600
C218        C  0.54428989  0.36019442  0.21668652     0.09400
C219        C  0.59091408  0.32606054  0.24481055    -0.54100
C220        C  0.57658993  0.30911196  0.21710911     0.10000
H221        H  0.61569796  0.39642329  0.20076629     0.14500
H222        H  0.55103590  0.32228285  0.16823467     0.00200
H223        H  0.54843025  0.39332302  0.26552638     0.14800
H224        H  0.60426148  0.31120784  0.26297200     0.14600
N225        N  0.64580004  0.47446768  0.42278308    -0.27400
N226        N  0.66900743  0.47596870  0.40368864    -0.35200
C227        C  0.66526611  0.46113711  0.36985974     0.01000
C228        C  0.63836401  0.45009152  0.36734196     0.07000
C229        C  0.62665995  0.45860942  0.40150424    -0.06100
H230        H  0.68139455  0.45672745  0.34956057     0.07600
H231        H  0.60597819  0.45279420  0.41056769     0.08800
Cu232      Cu  0.70600228  0.49174501  0.42595235     0.44200
Cu233      Cu  0.64197341  0.49042936  0.47809698     0.42000
Cu234      Cu  0.70600860  0.48924653  0.52612674     0.43900
N235        N  0.74126822  0.48989106  0.45702786    -0.34800
N236        N  0.74103090  0.48528898  0.49349565    -0.29000
C237        C  0.76675366  0.48009545  0.50502656    -0.05100
C238        C  0.78393639  0.48218813  0.47441184     0.07100
C239        C  0.76722672  0.48870052  0.44445127     0.00900
H240        H  0.77256577  0.47611597  0.53368633     0.08500
H241        H  0.77335282  0.49114894  0.41555352     0.07600
N242        N  0.66924469  0.50269006  0.55174361    -0.36200
N243        N  0.64573923  0.50380122  0.53401707    -0.28400
C244        C  0.62624014  0.51609767  0.55751990    -0.03600
C245        C  0.63800685  0.52266561  0.59182283     0.05000
C246        C  0.66535304  0.51426833  0.58696241     0.03100
H247        H  0.60540382  0.52150070  0.54959269     0.08200
H248        H  0.68138041  0.51728552  0.60726868     0.07000
O249        O  0.13538066  0.49294122  0.47222814    -0.73000
O250        O  0.05392324  0.49562583  0.46509233    -0.74000
O251        O  0.09257004  0.52604460  0.51450755    -0.62600
O252        O  0.09641734  0.46222429  0.42270680    -0.71100
O253        O  0.09286855  0.41351054  0.45828028    -0.70600
O254        O  0.09025611  0.47685598  0.54910529    -0.61900
O255        O  0.05092040  0.44707488  0.50077262    -0.74400
O256        O  0.13243154  0.44331686  0.50676454    -0.73100
Cu257      Cu  0.09476769  0.49592951  0.46735563     1.04600
Cu258      Cu  0.09159661  0.44352595  0.50495478     1.04300
C259        C  0.14664263  0.46759807  0.49046714     0.93200
C260        C  0.03946895  0.47213012  0.48222402     0.92300
C261        C  0.09042546  0.51139089  0.54651966     0.84400
C262        C  0.09452310  0.42783589  0.42611520     0.90700
O263        O  0.86638324  0.41830290  0.44876888    -0.73000
O264        O  0.86677401  0.48409114  0.53865841    -0.74000
O265        O  0.82516238  0.45454452  0.49321428    -0.62600
O266        O  0.90699674  0.44848407  0.49479613    -0.71100
O267        O  0.90955708  0.49729261  0.45940883    -0.70600
O268        O  0.82790143  0.50188345  0.45547878    -0.61900
O269        O  0.86868778  0.53229128  0.50194682    -0.74400
O270        O  0.86938480  0.46740056  0.41374377    -0.73100
Cu271      Cu  0.86601904  0.44960330  0.49517800     1.04600
Cu272      Cu  0.86879768  0.50132160  0.45638806     1.04300
C273        C  0.86950594  0.43298517  0.41691968     0.93200
C274        C  0.86858417  0.51832977  0.53428249     0.92300
C275        C  0.81371643  0.47926037  0.47419660     0.84400
C276        C  0.92125600  0.47191433  0.47722449     0.90700
C277        C  0.87718194  0.59370765  0.73980617     0.86400
C278        C  0.86834787  0.57924998  0.70182599    -0.53800
C279        C  0.88150752  0.59455721  0.67215422     0.09300
C280        C  0.90392532  0.62196263  0.68358058     0.20300
C281        C  0.90827498  0.58785162  0.74062591    -0.54600
C282        C  0.92227757  0.60181225  0.71135719     0.09400
C283        C  0.87513336  0.63549094  0.73755764    -0.54100
C284        C  0.88862749  0.65019765  0.70756359     0.10000
H285        H  0.85320572  0.55791834  0.69886602     0.14500
H286        H  0.91544998  0.63421530  0.66004147     0.00200
H287        H  0.91893849  0.57609922  0.76399921     0.14800
H288        H  0.86595393  0.65216273  0.75919529     0.14600
C289        C  0.88359734  0.37134146  0.20782974     0.86400
C290        C  0.87779205  0.38559336  0.24705282    -0.53800
C291        C  0.89094961  0.36753754  0.27440901     0.09300
C292        C  0.90758337  0.33453399  0.26053261     0.20300
C293        C  0.91500777  0.36880020  0.20403440    -0.54600
C294        C  0.92746827  0.34993650  0.23171912     0.09400
C295        C  0.87405207  0.33134455  0.21132955    -0.54100
C296        C  0.88780450  0.31133400  0.23694275     0.10000
H297        H  0.86344766  0.40713665  0.25329702     0.14500
H298        H  0.91799619  0.31963995  0.28305613     0.00200
H299        H  0.92645668  0.38140112  0.18158036     0.14800
H300        H  0.85728628  0.31951943  0.19607977     0.14600
N301        N  0.82250760  0.50809337  0.92830945    -0.27400
N302        N  0.79946158  0.50356454  0.91002265    -0.35200
C303        C  0.80352870  0.51220163  0.87423520     0.01000
C304        C  0.83049734  0.52229871  0.86971770     0.07000
C305        C  0.84195941  0.51971713  0.90458079    -0.06100
H306        H  0.78769143  0.51286644  0.85345024     0.07600
H307        H  0.86231550  0.52777664  0.91267829     0.08800
Cu308      Cu  0.76263770  0.49110633  0.93480160     0.39800
Cu309      Cu  0.82561406  0.50052733  0.98483995     0.42000
Cu310      Cu  0.76092174  0.49304726  0.03458577     0.43900
N311        N  0.72716195  0.48784250  0.96566757    -0.34800
N312        N  0.72626838  0.49151791  0.00227574    -0.29000
C313        C  0.70010140  0.49004166  0.01381181    -0.05100
C314        C  0.68403959  0.48444894  0.98292352     0.07100
C315        C  0.70171741  0.48316396  0.95287944     0.00900
H316        H  0.69340094  0.49155469  0.04257187     0.08500
H317        H  0.69649776  0.47971575  0.92386812     0.07600
N318        N  0.79834161  0.48047183  0.05721906    -0.36200
N319        N  0.82188373  0.48340368  0.03909048    -0.28400
C320        C  0.84169823  0.46841060  0.05940504    -0.03600
C321        C  0.82994200  0.45502836  0.09150536     0.05000
C322        C  0.80253342  0.46331908  0.08952789     0.03100
H323        H  0.86272965  0.46537675  0.05036547     0.08200
H324        H  0.78660765  0.45567807  0.10904620     0.07000
C325        C  0.89811768  0.86032211  0.74629656     0.86400
C326        C  0.89417936  0.81936077  0.74163706    -0.53800
C327        C  0.90796415  0.80440139  0.71215480     0.09300
C328        C  0.92369319  0.83263424  0.68835670     0.20300
C329        C  0.92898065  0.86704868  0.74587619    -0.54600
C330        C  0.94260358  0.85254339  0.71610860     0.09400
C331        C  0.88826918  0.87474485  0.70856025    -0.54100
C332        C  0.90185629  0.86113798  0.67821783     0.10000
H333        H  0.88107088  0.80339520  0.75973510     0.14500
H334        H  0.93460143  0.82062989  0.66418192     0.00200
H335        H  0.93944627  0.88090261  0.76842898     0.14800
H336        H  0.87216646  0.89451347  0.70518148     0.14600
C337        C  0.89483856  0.09388838  0.21236981     0.86400
C338        C  0.88585353  0.13392666  0.21598335    -0.53800
C339        C  0.89826572  0.15347148  0.24379691     0.09300
C340        C  0.91741100  0.12967785  0.26743414     0.20300
C341        C  0.92602504  0.09560937  0.21027901    -0.54600
C342        C  0.93795012  0.11360099  0.23895569     0.09400
C343        C  0.88764775  0.07903526  0.25077601    -0.54100
C344        C  0.89910943  0.09738262  0.27981632     0.10000
H345        H  0.87063539  0.14657551  0.19882154     0.14500
H346        H  0.92781490  0.14381509  0.29043775     0.00200
H347        H  0.93785415  0.08226763  0.18842267     0.14800
H348        H  0.87491323  0.05521404  0.25460037     0.14600
N349        N  0.83604319  0.98093860  0.04078285    -0.27400
N350        N  0.81238780  0.98406051  0.05866117    -0.35200
C351        C  0.81641140  0.00150642  0.09108847     0.01000
C352        C  0.84381141  0.00975484  0.09354193     0.07000
C353        C  0.85576297  0.99618068  0.06145490    -0.06100
H354        H  0.80036868  0.00925760  0.11047873     0.07600
H355        H  0.87690692  0.99890917  0.05285919     0.08800
Cu356      Cu  0.77487908  0.97095739  0.03621933     0.44200
Cu357      Cu  0.84019159  0.96114211  0.98710155     0.42000
Cu358      Cu  0.77721428  0.96688239  0.93722977     0.43900
N359        N  0.74037853  0.97203309  0.00356031    -0.34800
N360        N  0.74181257  0.97406025  0.96690739    -0.29000
C361        C  0.71661610  0.97738298  0.95311095    -0.05100
C362        C  0.69846596  0.97686366  0.98254882     0.07100
C363        C  0.71399069  0.97320057  0.01419578     0.00900
H364        H  0.71184988  0.97834842  0.92379764     0.08500
H365        H  0.70673067  0.97193230  0.04270873     0.07600
N366        N  0.81275932  0.94793661  0.91407515    -0.36200
N367        N  0.83603874  0.94554338  0.93213771    -0.28400
C368        C  0.85501884  0.93122155  0.90920920    -0.03600
C369        C  0.84294353  0.92457370  0.87520807     0.05000
C370        C  0.81606890  0.93490917  0.87941742     0.03100
H371        H  0.87600301  0.92609894  0.91666265     0.08200
H372        H  0.79987136  0.93236272  0.85932244     0.07000
O373        O  0.11041864  0.97802235  0.41800003    -0.73000
O374        O  0.11060483  0.92128070  0.51275503    -0.74000
O375        O  0.07006445  0.95422425  0.46911625    -0.62600
O376        O  0.15157813  0.94510338  0.46144263    -0.71100
O377        O  0.15581536  0.99546132  0.49513764    -0.70600
O378        O  0.07446985  0.00632991  0.49958813    -0.61900
O379        O  0.11403916  0.97270667  0.54443391    -0.74400
O380        O  0.11583494  0.02909099  0.44931518    -0.73100
Cu381      Cu  0.11058469  0.94788130  0.46416109     1.04600
Cu382      Cu  0.11529681  0.00266950  0.49819635     1.04300
C383        C  0.11263802  0.01256614  0.41833300     0.93200
C384        C  0.11181645  0.93817839  0.54380582     0.92300
C385        C  0.05940470  0.98179508  0.48525920     0.84400
C386        C  0.16647140  0.96870409  0.47769633     0.90700
O387        O  0.88977207  0.92547870  0.50953675    -0.73000
O388        O  0.89056076  0.98530307  0.41524794    -0.74000
O389        O  0.93044724  0.95805032  0.46498593    -0.62600
O390        O  0.84908394  0.95173366  0.45992389    -0.71100
O391        O  0.84554541  0.00402554  0.49055727    -0.70600
O392        O  0.92746186  0.00796165  0.49951179    -0.61900
O393        O  0.88861331  0.03579168  0.44918216    -0.74400
O394        O  0.88471596  0.97629115  0.54159818    -0.73100
Cu395      Cu  0.88996456  0.95339323  0.46112167     1.04600
Cu396      Cu  0.88634981  0.00772231  0.49637863     1.04300
C397        C  0.88812010  0.94203775  0.54090038     0.93200
C398        C  0.89036448  0.01993208  0.41762907     0.92300
C399        C  0.94179984  0.98312253  0.48395485     0.84400
C400        C  0.83452400  0.97708411  0.47395829     0.90700
C401        C  0.08479397  0.59961397  0.75324539     0.86400
C402        C  0.09106915  0.63903771  0.74215985    -0.53800
C403        C  0.07744035  0.65142653  0.71132782     0.09300
C404        C  0.05874306  0.62195147  0.69417041     0.20300
C405        C  0.05355634  0.59718173  0.75647649    -0.54600
C406        C  0.03987494  0.60955650  0.72625432     0.09400
C407        C  0.09186986  0.57872468  0.71688522    -0.54100
C408        C  0.07752580  0.58944560  0.68664177     0.10000
H409        H  0.10544360  0.65570411  0.75743030     0.14500
H410        H  0.04761989  0.62968995  0.66895357     0.00200
H411        H  0.04328582  0.58518117  0.78028326     0.14800
H412        H  0.10692703  0.55739940  0.71417180     0.14600
C413        C  0.08968843  0.35837831  0.21533694     0.86400
C414        C  0.09291479  0.31682550  0.21755246    -0.53800
C415        C  0.07850544  0.30069543  0.24586930     0.09300
C416        C  0.06336442  0.32830888  0.27105305     0.20300
C417        C  0.05917457  0.36575774  0.21577416    -0.54600
C418        C  0.04516236  0.35029575  0.24425699     0.09400
C419        C  0.09902104  0.37114463  0.25426578    -0.54100
C420        C  0.08601866  0.35514015  0.28384563     0.10000
H421        H  0.10642746  0.30146883  0.19946477     0.14500
H422        H  0.05210612  0.31520310  0.29411833     0.00200
H423        H  0.04910858  0.38110322  0.19414271     0.14800
H424        H  0.11445334  0.39147003  0.25841484     0.14600
N425        N  0.15189839  0.51782707  0.93782879    -0.27400
N426        N  0.17542518  0.52402892  0.92049149    -0.35200
C427        C  0.17046004  0.53994980  0.88763824     0.01000
C428        C  0.14252911  0.54390278  0.88403265     0.07000
C429        C  0.13138039  0.52977322  0.91640719    -0.06100
H430        H  0.18601239  0.54731648  0.86745762     0.07600
H431        H  0.10990535  0.52726043  0.92330430     0.08800
Cu432      Cu  0.21341659  0.50918464  0.94108674     0.44200
Cu433      Cu  0.14863068  0.49126171  0.98883677     0.42000
Cu434      Cu  0.21291022  0.46533838  0.03012704     0.43900
N435        N  0.24864895  0.49164031  0.96750605    -0.34800
N436        N  0.24823688  0.47586209  0.00043913    -0.29000
C437        C  0.27392386  0.46811883  0.01051274    -0.05100
C438        C  0.29129755  0.47932918  0.98245088     0.07100
C439        C  0.27476122  0.49428672  0.95565337     0.00900
H440        H  0.27950081  0.45551212  0.03644031     0.08500
H441        H  0.28122774  0.50660230  0.92976272     0.07600
N442        N  0.17532490  0.45434658  0.05382491    -0.36200
N443        N  0.15169367  0.46315182  0.03885027    -0.28400
C444        C  0.13134818  0.45079415  0.06091905    -0.03600
C445        C  0.14291334  0.43388294  0.09119493     0.05000
C446        C  0.17074648  0.43644049  0.08570145     0.03100
H447        H  0.10980918  0.45394379  0.05542059     0.08200
H448        H  0.18655204  0.42566691  0.10330710     0.07000
C449        C  0.10546285  0.85262916  0.75212580     0.86400
C450        C  0.11332032  0.87556349  0.71801965    -0.53800
C451        C  0.09954915  0.86677084  0.68635723     0.09300
C452        C  0.07989868  0.83449255  0.69080915     0.20300
C453        C  0.07413333  0.85433107  0.75507476    -0.54600
C454        C  0.06073028  0.84503997  0.72315943     0.09400
C455        C  0.11022694  0.81294354  0.73874450    -0.54100
C456        C  0.09708144  0.80347437  0.70662489     0.10000
H457        H  0.12845538  0.89707253  0.71902854     0.14500
H458        H  0.06910233  0.82727248  0.66473018     0.00200
H459        H  0.06355617  0.86288391  0.78027690     0.14800
H460        H  0.12012495  0.79212040  0.75443546     0.14600
C461        C  0.09957024  0.09447269  0.20853570     0.86400
C462        C  0.11014258  0.07532960  0.24352056    -0.53800
C463        C  0.09690627  0.08415899  0.27578484     0.09300
C464        C  0.07597379  0.11515473  0.27097218     0.20300
C465        C  0.06829310  0.08923946  0.20970277    -0.54600
C466        C  0.05582106  0.10057851  0.24194301     0.09400
C467        C  0.10446484  0.13445435  0.21853578    -0.54100
C468        C  0.09186684  0.14565568  0.25074530     0.10000
H469        H  0.12805033  0.05836796  0.24373285     0.14500
H470        H  0.06594383  0.12461898  0.29708302     0.00200
H471        H  0.05679710  0.07936326  0.18597660     0.14800
H472        H  0.11581959  0.15291108  0.20080861     0.14600
N473        N  0.16941870  0.93292115  0.93948302    -0.27400
N474        N  0.19337376  0.92193253  0.92661099    -0.35200
C475        C  0.18955155  0.90194258  0.89560243     0.01000
C476        C  0.16173769  0.89971368  0.88895360     0.07000
C477        C  0.14969091  0.91999902  0.91724537    -0.06100
H478        H  0.20593365  0.89255784  0.87762548     0.07600
H479        H  0.12828395  0.92675386  0.92006231     0.08800
Cu480      Cu  0.22994160  0.93976173  0.94901340     0.44200
Cu481      Cu  0.16536574  0.96994998  0.98279433     0.42000
Cu482      Cu  0.22673421  0.02013521  0.00866511     0.43900
N483        N  0.26391105  0.96630986  0.96998931    -0.34800
N484        N  0.26307819  0.99718736  0.98892048    -0.29000
C485        C  0.28889341  0.00822441  0.99543463    -0.05100
C486        C  0.30656998  0.98251209  0.98070650     0.07100
C487        C  0.29008696  0.95639311  0.96490235     0.00900
H488        H  0.29435300  0.03256473  0.01061297     0.08500
H489        H  0.29661872  0.93238726  0.94993359     0.07600
N490        N  0.18831138  0.02855890  0.03292965    -0.36200
N491        N  0.16631095  0.00967598  0.02384725    -0.28400
C492        C  0.14574964  0.01833493  0.04731839    -0.03600
C493        C  0.15518710  0.04376324  0.07247745     0.05000
C494        C  0.18221672  0.04973353  0.06257193     0.03100
H495        H  0.12584838  0.00551625  0.04738790     0.08200
H496        H  0.19682660  0.06637436  0.07732500     0.07000
C497        C  0.12508048  0.04713832  0.16998578    -0.05900
C498        C  0.11235780  0.08154022  0.17119290     0.00100
C499        C  0.11153042  0.10157191  0.13713496    -0.08500
C500        C  0.12698267  0.08908157  0.10625730    -0.05900
C501        C  0.14096627  0.05612263  0.10671708     0.00000
C502        C  0.13983148  0.03449249  0.13884196    -0.08400
C503        C  0.15425287  0.99809207  0.14026833     0.61900
H504        H  0.12282734  0.02903121  0.19318577     0.12600
H505        H  0.12743360  0.10475068  0.08082162     0.12700
C506        C  0.09481385  0.13565515  0.13050411     0.62200
F507        F  0.15270953  0.98279895  0.17531707    -0.23000
F508        F  0.18159336  0.00238345  0.13122851    -0.20300
F509        F  0.14242914  0.97428931  0.11527181    -0.20000
F510        F  0.11204105  0.16539001  0.13017901    -0.20000
F511        F  0.07433833  0.14135833  0.15644328    -0.20400
F512        F  0.08223241  0.13316676  0.09621920    -0.23000
C513        C  0.13098556  0.91078748  0.83643162    -0.05900
C514        C  0.14810702  0.88667267  0.85462450     0.00100
C515        C  0.15093705  0.85115932  0.84051984    -0.08500
C516        C  0.13766759  0.84177983  0.80716465    -0.05900
C517        C  0.11986102  0.86563444  0.78830657     0.00000
C518        C  0.11639702  0.90127019  0.80426114    -0.08400
C519        C  0.09806790  0.93161253  0.79057821     0.61900
H520        H  0.12878440  0.93791783  0.84787399     0.12600
H521        H  0.14191168  0.81546445  0.79632593     0.12700
C522        C  0.16687117  0.82257018  0.86141615     0.62200
F523        F  0.07993660  0.94115715  0.81876451    -0.23000
F524        F  0.08291259  0.92341135  0.75990935    -0.20300
F525        F  0.11402489  0.96149443  0.78210080    -0.20000
F526        F  0.15821245  0.82169778  0.89818267    -0.20000
F527        F  0.19445223  0.83036925  0.85997882    -0.20400
F528        F  0.16311680  0.78826534  0.84645331    -0.23000
C529        C  0.10708267  0.24643241  0.25784752    -0.05900
C530        C  0.08072636  0.26082843  0.25353841     0.00100
C531        C  0.05801122  0.23660823  0.25399854    -0.08500
C532        C  0.06270954  0.19928364  0.25863333    -0.05900
C533        C  0.08909541  0.18493175  0.25970331     0.00000
C534        C  0.11168805  0.20893307  0.26101195    -0.08400
C535        C  0.14094383  0.19632932  0.26521509     0.61900
H536        H  0.12444679  0.26472858  0.25788486     0.12600
H537        H  0.04578489  0.18049705  0.25775636     0.12700
C538        C  0.02938648  0.24865125  0.24447347     0.62200
F539        F  0.15347165  0.21644918  0.29287202    -0.23000
F540        F  0.15493420  0.20153926  0.23204751    -0.20300
F541        F  0.14271921  0.16023892  0.27495139    -0.20000
F542        F  0.02993319  0.26306435  0.20919511    -0.20000
F543        F  0.01994181  0.27387054  0.26991696    -0.20400
F544        F  0.01089904  0.22019953  0.24438882    -0.23000
C545        C  0.11422368  0.41228205  0.18670033    -0.05900
C546        C  0.10322121  0.37711267  0.18146756     0.00100
C547        C  0.10191563  0.36358613  0.14388850    -0.08500
C548        C  0.11567097  0.38280410  0.11552071    -0.05900
C549        C  0.12873557  0.41581198  0.12234993     0.00000
C550        C  0.12753286  0.43138530  0.15817496    -0.08400
C551        C  0.14003852  0.46833748  0.16612495     0.61900
H552        H  0.11172016  0.42597070  0.21301593     0.12600
H553        H  0.11635745  0.37199076  0.08738600     0.12700
C554        C  0.08664051  0.32947782  0.13169117     0.62200
F555        F  0.13429744  0.48033767  0.20195940    -0.23000
F556        F  0.12989618  0.49358033  0.14160835    -0.20300
F557        F  0.16810122  0.46645632  0.16200770    -0.20000
F558        F  0.07842070  0.33226312  0.09502739    -0.20000
F559        F  0.06324804  0.32356261  0.15247888    -0.20400
F560        F  0.10365998  0.29980170  0.13404274    -0.23000
C561        C  0.10951705  0.70240359  0.69946444    -0.05900
C562        C  0.08257192  0.68924521  0.69687962     0.00100
C563        C  0.06199553  0.71404461  0.68540600    -0.08500
C564        C  0.06790479  0.75151456  0.68686138    -0.05900
C565        C  0.09414424  0.76463780  0.69499329     0.00000
C566        C  0.11582478  0.73942301  0.69705876    -0.08400
C567        C  0.14581369  0.74981473  0.69675165     0.61900
H568        H  0.12599896  0.68347009  0.70421054     0.12600
H569        H  0.05163065  0.77085187  0.68307333     0.12700
C570        C  0.03458313  0.70225942  0.67001606     0.62200
F571        F  0.15919580  0.73017885  0.66917734    -0.23000
F572        F  0.15715631  0.74149890  0.73074052    -0.20300
F573        F  0.15008610  0.78611701  0.68946715    -0.20000
F574        F  0.01825332  0.73151513  0.66125454    -0.20000
F575        F  0.02042304  0.68165353  0.69543574    -0.20400
F576        F  0.03877901  0.68269216  0.63751741    -0.23000
C577        C  0.11596182  0.59185592  0.85288068    -0.05900
C578        C  0.12762099  0.55736123  0.85120716     0.00100
C579        C  0.12372300  0.53566116  0.81928281    -0.08500
C580        C  0.10907269  0.54993819  0.78927835    -0.05900
C581        C  0.09884783  0.58582790  0.78907184     0.00000
C582        C  0.10063509  0.60610132  0.82327434    -0.08400
C583        C  0.08714438  0.64252462  0.83114312     0.61900
H584        H  0.11849869  0.60766930  0.87817081     0.12600
H585        H  0.10484296  0.53198191  0.76635034     0.12700
C586        C  0.13467154  0.49719347  0.81723376     0.62200
F587        F  0.07685591  0.64333363  0.86720546    -0.23000
F588        F  0.06554023  0.64968104  0.80823408    -0.20300
F589        F  0.10636837  0.66979584  0.82756828    -0.20000
F590        F  0.12401129  0.47714296  0.84635639    -0.20000
F591        F  0.16283777  0.49771784  0.81955734    -0.20400
F592        F  0.12783993  0.47993505  0.78426321    -0.23000
C593        C  0.10814506  0.01158577  0.34974604    -0.05900
C594        C  0.11057961  0.03267651  0.38229329     0.00100
C595        C  0.10997684  0.07115233  0.37905538    -0.08500
C596        C  0.10542763  0.08648415  0.34373920    -0.05900
C597        C  0.10234102  0.06517364  0.31157312     0.00000
C598        C  0.10402058  0.02671446  0.31451209    -0.08400
C599        C  0.10208534  0.00057861  0.28145723     0.61900
H600        H  0.10966040  0.98245940  0.35187328     0.12600
H601        H  0.10453608  0.11560685  0.34080562     0.12700
C602        C  0.11435313  0.09636606  0.41210323     0.62200
F603        F  0.09520218  0.96591369  0.29276978    -0.23000
F604        F  0.12711225  0.99848950  0.26345385    -0.20300
F605        F  0.08240254  0.01123093  0.25661243    -0.20000
F606        F  0.13932309  0.08915956  0.42814055    -0.20000
F607        F  0.09361118  0.09176521  0.43805596    -0.20400
F608        F  0.11447798  0.13243552  0.40180379    -0.23000
C609        C  0.09730083  0.93737226  0.60953055    -0.05900
C610        C  0.10938949  0.91849635  0.57965727     0.00100
C611        C  0.11885919  0.88259943  0.58527757    -0.08500
C612        C  0.11514644  0.86679633  0.62062315    -0.05900
C613        C  0.10334563  0.88603463  0.65046751     0.00000
C614        C  0.09439423  0.92208824  0.64495769    -0.08400
C615        C  0.08226852  0.94496326  0.67613169     0.61900
H616        H  0.09022074  0.96472920  0.60494839     0.12600
H617        H  0.12168589  0.83921554  0.62542303     0.12700
C618        C  0.13355744  0.86136875  0.55481267     0.62200
F619        F  0.10252449  0.95339909  0.70121660    -0.23000
F620        F  0.06133109  0.92640909  0.69365675    -0.20300
F621        F  0.07162744  0.97724376  0.66334110    -0.20000
F622        F  0.15477256  0.88189922  0.54030854    -0.20000
F623        F  0.11548878  0.85248836  0.52683795    -0.20400
F624        F  0.14454385  0.82949451  0.56807712    -0.23000
C625        C  0.01499031  0.95317158  0.49821754    -0.05900
C626        C  0.02936402  0.98444917  0.48781540     0.00100
C627        C  0.01483633  0.01628817  0.47863138    -0.08500
C628        C  0.98610475  0.01515270  0.47913739    -0.05900
C629        C  0.97179572  0.98326425  0.48761534     0.00000
C630        C  0.98633459  0.95203989  0.49864872    -0.08400
C631        C  0.97177747  0.91799629  0.51188179     0.61900
H632        H  0.02651108  0.92934247  0.50573363     0.12600
H633        H  0.97458289  0.03898392  0.47199431     0.12700
C634        C  0.02945112  0.05073219  0.46678022     0.62200
F635        F  0.98975028  0.89339779  0.52707882    -0.23000
F636        F  0.95887365  0.90117951  0.48238283    -0.20300
F637        F  0.95267394  0.92689637  0.53903109    -0.20000
F638        F  0.04737353  0.04316865  0.43775678    -0.20000
F639        F  0.04374332  0.06501938  0.49648586    -0.20400
F640        F  0.01137986  0.07687037  0.45477257    -0.23000
C641        C  0.98005896  0.09024964  0.26777543    -0.05900
C642        C  0.96815113  0.11429604  0.24270318     0.00100
C643        C  0.98510868  0.13497895  0.21878650    -0.08500
C644        C  0.01357231  0.12990577  0.22003115    -0.05900
C645        C  0.02557986  0.10539280  0.24471247     0.00000
C646        C  0.00860531  0.08574979  0.26972137    -0.08400
C647        C  0.02020263  0.05877896  0.29696996     0.61900
H648        H  0.96669694  0.07364848  0.28462935     0.12600
H649        H  0.02681156  0.14490850  0.20132929     0.12700
C650        C  0.97317351  0.16216721  0.19197695     0.62200
F651        F  0.99988948  0.04134087  0.31714244    -0.23000
F652        F  0.03701781  0.07624225  0.32199802    -0.20300
F653        F  0.03487628  0.03275582  0.27777098    -0.20000
F654        F  0.95654641  0.18612096  0.21129492    -0.20000
F655        F  0.95801410  0.14444800  0.16516347    -0.20400
F656        F  0.99332848  0.18202267  0.17402617    -0.23000
C657        C  0.86948474  0.08875505  0.15093827    -0.05900
C658        C  0.88314992  0.07105862  0.18019941     0.00100
C659        C  0.88613193  0.03237750  0.17748468    -0.08500
C660        C  0.87211852  0.01367555  0.14930344    -0.05900
C661        C  0.85710713  0.03165156  0.12243130     0.00000
C662        C  0.85628004  0.06973794  0.12231431    -0.08400
C663        C  0.84183586  0.09014698  0.09162822     0.61900
H664        H  0.86972242  0.11774706  0.14920173     0.12600
H665        H  0.87335924  0.98435368  0.14774742     0.12700
C666        C  0.90370216  0.00810588  0.20177831     0.62200
F667        F  0.84442035  0.12732518  0.09565820    -0.23000
F668        F  0.81429987  0.08175421  0.09220395    -0.20300
F669        F  0.85285682  0.08046808  0.05739184    -0.20000
F670        F  0.88689427  0.98448699  0.22111363    -0.20000
F671        F  0.91995907  0.02583388  0.22706839    -0.20400
F672        F  0.92097068  0.98799734  0.17898100    -0.23000
C673        C  0.91852993  0.07906489  0.34014391    -0.05900
C674        C  0.89514789  0.08457495  0.31873205     0.00100
C675        C  0.86945561  0.07186346  0.33235159    -0.08500
C676        C  0.86882806  0.04972792  0.36403057    -0.05900
C677        C  0.89258065  0.04219352  0.38381472     0.00000
C678        C  0.91768037  0.05790659  0.37256033    -0.08400
C679        C  0.94347390  0.05155962  0.39449940     0.61900
H680        H  0.93771659  0.09018851  0.33056422     0.12600
H681        H  0.84949545  0.03886504  0.37392454     0.12700
C682        C  0.84217693  0.08148154  0.31521521     0.62200
F683        F  0.96597410  0.06831530  0.37849375    -0.23000
F684        F  0.94868692  0.01480022  0.39631036    -0.20300
F685        F  0.94003788  0.06534174  0.43008342    -0.20000
F686        F  0.83151310  0.05134853  0.29742209    -0.20000
F687        F  0.84418505  0.10960898  0.29012874    -0.20400
F688        F  0.82410368  0.09228596  0.34298845    -0.23000
C689        C  0.98536439  0.83410890  0.74626498    -0.05900
C690        C  0.97302607  0.85076751  0.71574105     0.00100
C691        C  0.98979239  0.86564064  0.68729564    -0.08500
C692        C  0.01839314  0.86208179  0.69010628    -0.05900
C693        C  0.03048301  0.84444156  0.72030761     0.00000
C694        C  0.01356919  0.82834921  0.74781142    -0.08400
C695        C  0.02429541  0.80386117  0.77822527     0.61900
H696        H  0.97264553  0.82471683  0.76902764     0.12600
H697        H  0.03160693  0.87390403  0.66911938     0.12700
C698        C  0.97788627  0.88780956  0.65602719     0.62200
F699        F  0.00527171  0.77735946  0.78692590    -0.23000
F700        F  0.02928258  0.82404844  0.80998357    -0.20300
F701        F  0.04791536  0.78618848  0.76710916    -0.20000
F702        F  0.96222780  0.91548472  0.67100074    -0.20000
F703        F  0.96192352  0.86622915  0.63345271    -0.20400
F704        F  0.99803709  0.90328561  0.63393493    -0.23000
C705        C  0.87289420  0.91162462  0.77865925    -0.05900
C706        C  0.88468646  0.87681773  0.78128468     0.00100
C707        C  0.88498671  0.86011584  0.81718779    -0.08500
C708        C  0.86926749  0.87556767  0.84601103    -0.05900
C709        C  0.85615429  0.90880472  0.84203436     0.00000
C710        C  0.85850413  0.92785763  0.80827727    -0.08400
C711        C  0.84678943  0.96572417  0.80389592     0.61900
H712        H  0.87571449  0.92714848  0.75363917     0.12600
H713        H  0.86810077  0.86218456  0.87279234     0.12700
C714        C  0.90173554  0.82714675  0.82814035     0.62200
F715        F  0.85432337  0.98115045  0.77030414    -0.23000
F716        F  0.85610179  0.98807877  0.83214078    -0.20300
F717        F  0.81860054  0.96431695  0.80523838    -0.20000
F718        F  0.91299775  0.83290564  0.86291786    -0.20000
F719        F  0.92326120  0.81984685  0.80431216    -0.20400
F720        F  0.88484498  0.79712944  0.83011575    -0.23000
C721        C  0.90450879  0.91699388  0.64149753    -0.05900
C722        C  0.89927277  0.87966596  0.64163514     0.00100
C723        C  0.88928492  0.86283246  0.60901032    -0.08500
C724        C  0.88594960  0.88404983  0.57671016    -0.05900
C725        C  0.89126571  0.92166496  0.57653789     0.00000
C726        C  0.90072595  0.93847147  0.60989738    -0.08400
C727        C  0.90721737  0.97877403  0.61287340     0.61900
H728        H  0.91124301  0.92947111  0.66718945     0.12600
H729        H  0.87859842  0.87141536  0.55142605     0.12700
C730        C  0.88072481  0.82332459  0.60897743     0.62200
F731        F  0.91807388  0.98806960  0.64709478    -0.23000
F732        F  0.88357776  0.99873323  0.60866820    -0.20300
F733        F  0.92621864  0.98833046  0.58589952    -0.20000
F734        F  0.86109322  0.81782128  0.63631892    -0.20000
F735        F  0.90298026  0.80154198  0.61579172    -0.20400
F736        F  0.86979605  0.81280833  0.57518179    -0.23000
C737        C  0.96953893  0.36440567  0.26672933    -0.05900
C738        C  0.95758618  0.34755501  0.23572772     0.00100
C739        C  0.97455176  0.33021064  0.20905083    -0.08500
C740        C  0.00290168  0.33279529  0.21295667    -0.05900
C741        C  0.01491822  0.35013536  0.24354024     0.00000
C742        C  0.99799658  0.36812689  0.26985438    -0.08400
C743        C  0.00829871  0.39434319  0.29913394     0.61900
H744        H  0.95656458  0.37637892  0.28797198     0.12600
H745        H  0.01610617  0.32152214  0.19158792     0.12700
C746        C  0.96301513  0.30672539  0.17828210     0.62200
F747        F  0.03602687  0.40047896  0.29668692    -0.23000
F748        F  0.00182063  0.38126228  0.33402247    -0.20300
F749        F  0.99564759  0.42743821  0.29469729    -0.20000
F750        F  0.94865333  0.32760083  0.15351808    -0.20000
F751        F  0.94609134  0.28090762  0.19393965    -0.20400
F752        F  0.98327228  0.28868544  0.15845283    -0.23000
C753        C  0.88853239  0.25389344  0.27299075    -0.05900
C754        C  0.88759677  0.27061263  0.23792226     0.00100
C755        C  0.89021281  0.24839206  0.20535592    -0.08500
C756        C  0.89560906  0.21136304  0.20985039    -0.05900
C757        C  0.89584191  0.19426113  0.24471559     0.00000
C758        C  0.89182669  0.21603175  0.27713052    -0.08400
C759        C  0.89098508  0.20039160  0.31606141     0.61900
H760        H  0.88662322  0.27095206  0.29753914     0.12600
H761        H  0.89913224  0.19481668  0.18531596     0.12700
C762        C  0.88636509  0.26180546  0.16554044     0.62200
F763        F  0.87926295  0.22437475  0.34133732    -0.23000
F764        F  0.91723034  0.19338428  0.32771966    -0.20300
F765        F  0.87564556  0.16894799  0.31677584    -0.20000
F766        F  0.90088455  0.29312920  0.15878091    -0.20000
F767        F  0.85892353  0.26776816  0.15942771    -0.20400
F768        F  0.89509124  0.23662039  0.13927532    -0.23000
C769        C  0.85969225  0.45159853  0.14562349    -0.05900
C770        C  0.84357180  0.43338509  0.11993726     0.00100
C771        C  0.84223585  0.39535685  0.12017920    -0.08500
C772        C  0.85605812  0.37669792  0.14816069    -0.05900
C773        C  0.87077901  0.39456096  0.17667353     0.00000
C774        C  0.87411922  0.43334536  0.17350636    -0.08400
C775        C  0.89268290  0.45683848  0.19778421     0.61900
H776        H  0.86076103  0.48087285  0.14342142     0.12600
H777        H  0.85601380  0.34743816  0.14637672     0.12700
C778        C  0.82677879  0.37466928  0.09029377     0.62200
F779        F  0.89518836  0.49177525  0.18428420    -0.23000
F780        F  0.91874446  0.44301605  0.19859508    -0.20300
F781        F  0.88219765  0.46001032  0.23330809    -0.20000
F782        F  0.83730296  0.38327886  0.05558356    -0.20000
F783        F  0.79942743  0.38383227  0.09178682    -0.20400
F784        F  0.82871738  0.33753040  0.09464010    -0.23000
C785        C  0.96365169  0.62683944  0.73985114    -0.05900
C786        C  0.95251776  0.60380045  0.71268195     0.00100
C787        C  0.97013771  0.58036840  0.69235157    -0.08500
C788        C  0.99852309  0.58486331  0.69603310    -0.05900
C789        C  0.00963822  0.60789579  0.72319651     0.00000
C790        C  0.99185781  0.62839649  0.74654133    -0.08400
C791        C  0.00215387  0.65116443  0.77893666     0.61900
H792        H  0.94971649  0.64246478  0.75718414     0.12600
H793        H  0.01216528  0.56845706  0.67902798     0.12700
C794        C  0.96059155  0.54842631  0.66909086     0.62200
F795        F  0.98165738  0.67233245  0.79451103    -0.23000
F796        F  0.02288284  0.67403583  0.76737975    -0.20300
F797        F  0.01168343  0.62869727  0.80647284    -0.20000
F798        F  0.96873031  0.55330359  0.63256893    -0.20000
F799        F  0.93266746  0.54327431  0.67036504    -0.20400
F800        F  0.97258885  0.51716320  0.68219464    -0.23000
C801        C  0.92006692  0.70244707  0.70620906    -0.05900
C802        C  0.89321307  0.68984113  0.70310384     0.00100
C803        C  0.87201549  0.71499630  0.69667601    -0.08500
C804        C  0.87824713  0.75224772  0.69706368    -0.05900
C805        C  0.90482749  0.76501486  0.70361351     0.00000
C806        C  0.92624730  0.73960434  0.70768985    -0.08400
C807        C  0.95487966  0.75112467  0.71766159     0.61900
H808        H  0.93607267  0.68286741  0.70963792     0.12600
H809        H  0.86208065  0.77191531  0.69397554     0.12700
C810        C  0.84317464  0.70273817  0.68846432     0.62200
F811        F  0.97252625  0.72202151  0.72023878    -0.23000
F812        F  0.95390505  0.76810214  0.75191023    -0.20300
F813        F  0.96529482  0.77421683  0.69099982    -0.20000
F814        F  0.83167362  0.68703351  0.71963141    -0.20000
F815        F  0.84371465  0.67801197  0.65944528    -0.20400
F816        F  0.82668551  0.73131751  0.67816631    -0.23000
C817        C  0.87377207  0.54142069  0.78441323    -0.05900
C818        C  0.86226777  0.57423456  0.77181881     0.00100
C819        C  0.83736332  0.58595970  0.78892686    -0.08500
C820        C  0.82879602  0.56929646  0.82201897    -0.05900
C821        C  0.84234524  0.53927318  0.83643534     0.00000
C822        C  0.86480975  0.52431708  0.81702323    -0.08400
C823        C  0.87917724  0.49042712  0.83042726     0.61900
H824        H  0.89031223  0.52917297  0.76871281     0.12600
H825        H  0.81064345  0.57917275  0.83633457     0.12700
C826        C  0.81775296  0.61326648  0.77272525     0.62200
F827        F  0.89901868  0.47865217  0.80542772    -0.23000
F828        F  0.86045315  0.46268038  0.83511658    -0.20300
F829        F  0.89180378  0.49754151  0.86392538    -0.20000
F830        F  0.82159684  0.61761781  0.73506567    -0.20000
F831        F  0.82064556  0.64618019  0.79086590    -0.20400
F832        F  0.79107531  0.60145630  0.77758067    -0.23000
C833        C  0.89554715  0.42785452  0.35942488    -0.05900
C834        C  0.87644347  0.41159867  0.38321765     0.00100
C835        C  0.86470715  0.37788133  0.37307313    -0.08500
C836        C  0.87185108  0.36260502  0.33810653    -0.05900
C837        C  0.88951679  0.38064941  0.31327958     0.00000
C838        C  0.90179290  0.41383549  0.32437003    -0.08400
C839        C  0.92101080  0.43695417  0.30109743     0.61900
H840        H  0.90523254  0.45307149  0.36783222     0.12600
H841        H  0.86249377  0.33750003  0.32895652     0.12700
C842        C  0.84380114  0.35929301  0.39780566     0.62200
F843        F  0.94531346  0.44127712  0.31989267    -0.23000
F844        F  0.90956008  0.47080804  0.29633782    -0.20300
F845        F  0.92680334  0.42261318  0.26656528    -0.20000
F846        F  0.82235826  0.38266183  0.40529362    -0.20000
F847        F  0.85580115  0.34927208  0.43083161    -0.20400
F848        F  0.83327817  0.32841789  0.38112640    -0.23000
C849        C  0.84838555  0.55025876  0.58803449    -0.05900
C850        C  0.87158955  0.54194266  0.56689551     0.00100
C851        C  0.89724828  0.55638828  0.57688703    -0.08500
C852        C  0.89925134  0.57643004  0.61008071    -0.05900
C853        C  0.87637839  0.58243861  0.63316196     0.00000
C854        C  0.85007976  0.57192971  0.62011834    -0.08400
C855        C  0.82318814  0.58393306  0.63741730     0.61900
H856        H  0.82863748  0.54043125  0.57886346     0.12600
H857        H  0.91906883  0.58575669  0.61906276     0.12700
C858        C  0.92248561  0.54919660  0.55321832     0.62200
F859        F  0.80651049  0.59756136  0.60996752    -0.23000
F860        F  0.82642341  0.61094544  0.66359060    -0.20300
F861        F  0.81026122  0.55461284  0.65369588    -0.20000
F862        F  0.91855174  0.56239674  0.51778277    -0.20000
F863        F  0.92723689  0.51232354  0.55140960    -0.20400
F864        F  0.94548749  0.56584032  0.56746066    -0.23000
C865        C  0.11630121  0.40345410  0.36872162    -0.05900
C866        C  0.09354548  0.40449397  0.39251910     0.00100
C867        C  0.07028620  0.38336562  0.38390269    -0.08500
C868        C  0.06957990  0.36475814  0.34956189    -0.05900
C869        C  0.09144387  0.36616855  0.32377828     0.00000
C870        C  0.11639517  0.38257363  0.33577777    -0.08400
C871        C  0.14397888  0.37740715  0.31667645     0.61900
H872        H  0.13460089  0.41808562  0.37669829     0.12600
H873        H  0.05099755  0.35101490  0.34201202     0.12700
C874        C  0.04553495  0.38265133  0.40974907     0.62200
F875        F  0.16358144  0.36991746  0.34302281    -0.23000
F876        F  0.15147160  0.40895453  0.29860768    -0.20300
F877        F  0.14399149  0.34871970  0.29171431    -0.20000
F878        F  0.03544148  0.41739697  0.41395998    -0.20000
F879        F  0.05272592  0.36928326  0.44410993    -0.20400
F880        F  0.02485911  0.36080428  0.39623065    -0.23000
C881        C  0.07502869  0.51600180  0.61198119    -0.05900
C882        C  0.08695934  0.53355952  0.58125225     0.00100
C883        C  0.09482632  0.57056519  0.58512913    -0.08500
C884        C  0.09067387  0.58803980  0.61988734    -0.05900
C885        C  0.07916606  0.56989921  0.65048940     0.00000
C886        C  0.07068284  0.53334780  0.64630089    -0.08400
C887        C  0.05651605  0.51082281  0.67614486     0.61900
H888        H  0.06847565  0.48805382  0.60918213     0.12600
H889        H  0.09683674  0.61599867  0.62373543     0.12700
C890        C  0.10806620  0.59149871  0.55344638     0.62200
F891        F  0.03202646  0.49789434  0.66239809    -0.23000
F892        F  0.05072034  0.52949138  0.70858609    -0.20300
F893        F  0.07289755  0.48164633  0.68476117    -0.20000
F894        F  0.08956607  0.59573838  0.52496837    -0.20000
F895        F  0.13082727  0.57310120  0.54028914    -0.20400
F896        F  0.11646514  0.62568972  0.56463637    -0.23000
C897        C  0.96555923  0.50394919  0.47835374    -0.05900
C898        C  0.95153106  0.47071817  0.47817805     0.00100
C899        C  0.96663131  0.43795280  0.47849416    -0.08500
C900        C  0.99529020  0.43990860  0.47963684    -0.05900
C901        C  0.00926886  0.47316800  0.48025401     0.00000
C902        C  0.99417767  0.50592838  0.48008198    -0.08400
C903        C  0.00784723  0.54285612  0.48327905     0.61900
H904        H  0.95379462  0.52868035  0.47765177     0.12600
H905        H  0.00712642  0.41517693  0.48008257     0.12700
C906        C  0.95290134  0.40101313  0.47684661     0.62200
F907        F  0.02502201  0.54349767  0.51364629    -0.23000
F908        F  0.98897333  0.57041775  0.48811920    -0.20300
F909        F  0.02269344  0.55007542  0.45123542    -0.20000
F910        F  0.93459380  0.39977919  0.44776226    -0.20000
F911        F  0.93928983  0.39445595  0.51003729    -0.20400
F912        F  0.97163011  0.37340547  0.47121429    -0.23000
C913        C  0.61343849  0.39644735  0.34400381    -0.05900
C914        C  0.62562776  0.42989011  0.33636080     0.00100
C915        C  0.62397351  0.44428905  0.30023702    -0.08500
C916        C  0.61234598  0.42295707  0.27199558    -0.05900
C917        C  0.60205087  0.38765515  0.27834403     0.00000
C918        C  0.60025145  0.37580379  0.31632107    -0.08400
C919        C  0.58456524  0.34245829  0.32972542     0.61900
H920        H  0.61400195  0.38664755  0.37236583     0.12600
H921        H  0.61032590  0.43493931  0.24492095     0.12700
C922        C  0.63324307  0.48274953  0.29186556     0.62200
F923        F  0.57595517  0.34696158  0.36632133    -0.23000
F924        F  0.60133842  0.31242798  0.32823921    -0.20300
F925        F  0.56131015  0.33605651  0.30930931    -0.20000
F926        F  0.66140200  0.48478166  0.29277460    -0.20000
F927        F  0.62229463  0.50648626  0.31797069    -0.20400
F928        F  0.62491356  0.49395316  0.25708793    -0.23000
C929        C  0.59093668  0.54269335  0.67433769    -0.05900
C930        C  0.60185271  0.57564464  0.68797452     0.00100
C931        C  0.62778518  0.58694761  0.67327417    -0.08500
C932        C  0.63778005  0.57009100  0.64065424    -0.05900
C933        C  0.62520408  0.53946923  0.62522575     0.00000
C934        C  0.60235342  0.52413803  0.64360659    -0.08400
C935        C  0.59076879  0.48759152  0.63196547     0.61900
H936        H  0.57351354  0.53081723  0.68833067     0.12600
H937        H  0.65636198  0.58024226  0.62769889     0.12700
C938        C  0.64673308  0.61491157  0.69084834     0.62200
F939        F  0.57178051  0.47475638  0.65750502    -0.23000
F940        F  0.61158726  0.46239975  0.62917228    -0.20300
F941        F  0.57801027  0.49044990  0.59801490    -0.20000
F942        F  0.67337647  0.60240518  0.68934915    -0.20000
F943        F  0.64094456  0.62174415  0.72788366    -0.20400
F944        F  0.64549798  0.64685758  0.67106406    -0.23000
C945        C  0.56230644  0.20751365  0.20368736    -0.05900
C946        C  0.58893019  0.19359548  0.20212520     0.00100
C947        C  0.61131025  0.21815196  0.20227808    -0.08500
C948        C  0.60608609  0.25549546  0.20567466    -0.05900
C949        C  0.57949040  0.26930534  0.20966535     0.00000
C950        C  0.55711739  0.24475019  0.20911442    -0.08400
C951        C  0.52827966  0.25673720  0.21866418     0.61900
H952        H  0.54548732  0.18851013  0.20367924     0.12600
H953        H  0.62320132  0.27420843  0.20613210     0.12700
C954        C  0.64104025  0.20686910  0.19948793     0.62200
F955        F  0.51022684  0.22785545  0.22005325    -0.23000
F956        F  0.51880521  0.28061630  0.19246483    -0.20300
F957        F  0.52822962  0.27307173  0.25333556    -0.20000
F958        F  0.64435923  0.17067584  0.19106153    -0.20000
F959        F  0.65367173  0.21409116  0.23299626    -0.20400
F960        F  0.65398159  0.22654294  0.17177603    -0.23000
C961        C  0.61952685  0.07041569  0.34409908    -0.05900
C962        C  0.64355667  0.05061753  0.33778791     0.00100
C963        C  0.65437535  0.04847405  0.30119541    -0.08500
C964        C  0.64081440  0.06649510  0.27247784    -0.05900
C965        C  0.61557623  0.08451579  0.27768501     0.00000
C966        C  0.60599398  0.08894696  0.31531019    -0.08400
C967        C  0.58257402  0.11329556  0.32809343     0.61900
H968        H  0.61175999  0.07261767  0.37241695     0.12600
H969        H  0.65089322  0.06725039  0.24572278     0.12700
C970        C  0.67956235  0.02605586  0.29159832     0.62200
F971        F  0.56094933  0.09200711  0.33998401    -0.23000
F972        F  0.57342224  0.13674614  0.30134656    -0.20300
F973        F  0.59114309  0.13449444  0.35772532    -0.20000
F974        F  0.67740536  0.99210008  0.30741581    -0.20000
F975        F  0.70274680  0.04322258  0.30442460    -0.20400
F976        F  0.68267381  0.02116267  0.25352647    -0.23000
C977        C  0.56907279  0.75503091  0.73414335    -0.05900
C978        C  0.59156667  0.76785283  0.75422328     0.00100
C979        C  0.60660114  0.74367087  0.77623529    -0.08500
C980        C  0.59999169  0.70656398  0.77495504    -0.05900
C981        C  0.57795937  0.69347624  0.75408253     0.00000
C982        C  0.56166084  0.71822288  0.73427531    -0.08400
C983        C  0.53668770  0.70574697  0.71328292     0.61900
H984        H  0.55789157  0.77399038  0.71725007     0.12600
H985        H  0.61281199  0.68734723  0.78888423     0.12700
C986        C  0.62943822  0.75722366  0.80077437     0.62200
F987        F  0.52359430  0.73420204  0.69609024    -0.23000
F988        F  0.51853124  0.69014132  0.73811678    -0.20300
F989        F  0.54403122  0.68081022  0.68614204    -0.20000
F990        F  0.61899524  0.78242136  0.82567363    -0.20000
F991        F  0.64965995  0.77318956  0.77927167    -0.20400
F992        F  0.64103627  0.72952722  0.82099319    -0.23000
C993        C  0.66459413  0.88691603  0.62830056    -0.05900
C994        C  0.64979320  0.88082092  0.59555347     0.00100
C995        C  0.62624343  0.85856669  0.59720025    -0.08500
C996        C  0.61603812  0.84821076  0.63233403    -0.05900
C997        C  0.62897515  0.85833467  0.66579753     0.00000
C998        C  0.65579607  0.87327941  0.66289271    -0.08400
C999        C  0.67723148  0.87139036  0.69318018     0.61900
H1000       H  0.68403430  0.90099039  0.62657977     0.12600
H1001       H  0.59750849  0.83224061  0.63380360     0.12700
C1002       C  0.61261101  0.84435161  0.56221546     0.62200
F1003       F  0.70184185  0.86002053  0.67781527    -0.23000
F1004       F  0.67049372  0.84681599  0.72063784    -0.20300
F1005       F  0.68111094  0.90533572  0.70878980    -0.20000
F1006       F  0.63205847  0.82960360  0.53839142    -0.20000
F1007       F  0.59921275  0.87207832  0.54448253    -0.20400
F1008       F  0.59364305  0.81754656  0.57016847    -0.23000
C1009       C  0.61914842  0.06975132  0.07542662    -0.05900
C1010       C  0.60690677  0.03536936  0.07205727     0.00100
C1011       C  0.59093815  0.02177105  0.10206886    -0.08500
C1012       C  0.58956929  0.04200640  0.13517113    -0.05900
C1013       C  0.60090112  0.07673128  0.13818097     0.00000
C1014       C  0.61647829  0.09070507  0.10819814    -0.08400
C1015       C  0.63207116  0.12595025  0.11198950     0.61900
H1016       H  0.63150792  0.07969463  0.05248731     0.12600
H1017       H  0.57968521  0.03059623  0.15940167     0.12700
C1018       C  0.57435488  0.98697191  0.09912298     0.62200
F1019       F  0.64512555  0.13549487  0.07910805    -0.23000
F1020       F  0.65169929  0.12204709  0.13903873    -0.20300
F1021       F  0.61446250  0.15365376  0.12193339    -0.20000
F1022       F  0.59152157  0.95729680  0.09918796    -0.20000
F1023       F  0.55926874  0.98705336  0.06672913    -0.20400
F1024       F  0.55614861  0.98333380  0.12859657    -0.23000
C1025       C  0.62621014  0.87100420  0.83187079    -0.05900
C1026       C  0.61141517  0.88830192  0.80391646     0.00100
C1027       C  0.59993759  0.92278156  0.81114553    -0.08500
C1028       C  0.60358864  0.93873934  0.84623095    -0.05900
C1029       C  0.61746970  0.92106853  0.87484072     0.00000
C1030       C  0.62902865  0.88640708  0.86772038    -0.08400
C1031       C  0.64425986  0.86570427  0.89737444     0.61900
H1032       H  0.63526209  0.84507806  0.82543843     0.12600
H1033       H  0.59448748  0.96486007  0.85209664     0.12700
C1034       C  0.58262097  0.94197930  0.78281200     0.62200
F1035       F  0.65642796  0.83469663  0.88308362    -0.23000
F1036       F  0.62625118  0.85528890  0.92522583    -0.20300
F1037       F  0.66456122  0.88730500  0.91235212    -0.20000
F1038       F  0.55953366  0.92150074  0.77632789    -0.20000
F1039       F  0.59730605  0.94658513  0.75015041    -0.20400
F1040       F  0.57427200  0.97587650  0.79504442    -0.23000
C1041       C  0.51880287  0.01083158  0.97676487    -0.05900
C1042       C  0.53190710  0.97807059  0.96809549     0.00100
C1043       C  0.51616395  0.94699417  0.95918501    -0.08500
C1044       C  0.48754626  0.94958559  0.96078582    -0.05900
C1045       C  0.47439641  0.98219659  0.97004761     0.00000
C1046       C  0.49018506  0.01359883  0.97792285    -0.08400
C1047       C  0.47714885  0.04964937  0.98847269     0.61900
H1048       H  0.53129352  0.03425798  0.98324324     0.12600
H1049       H  0.47511175  0.92604148  0.95456759     0.12700
C1050       C  0.52936588  0.91160096  0.94688471     0.62200
F1051       F  0.49637205  0.07494051  0.99968997    -0.23000
F1052       F  0.45881331  0.04498391  0.01757637    -0.20300
F1053       F  0.46367792  0.06364983  0.95817014    -0.20000
F1054       F  0.54239743  0.89579114  0.97659095    -0.20000
F1055       F  0.54813932  0.91806274  0.91862572    -0.20400
F1056       F  0.51029776  0.88710500  0.93356755    -0.23000
C1057       C  0.48069861  0.09599916  0.18794654    -0.05900
C1058       C  0.46857580  0.11794638  0.21533559     0.00100
C1059       C  0.48537553  0.13817743  0.23983589    -0.08500
C1060       C  0.51394845  0.13431692  0.23691678    -0.05900
C1061       C  0.52615312  0.11091891  0.21068035     0.00000
C1062       C  0.50921402  0.09146847  0.18564043    -0.08400
C1063       C  0.52083177  0.06389161  0.15867170     0.61900
H1064       H  0.46744807  0.08077600  0.16962526     0.12600
H1065       H  0.52709863  0.14898376  0.25586865     0.12700
C1066       C  0.47338498  0.16361533  0.26907087     0.62200
F1067       F  0.50076110  0.04684713  0.13797553    -0.23000
F1068       F  0.53424298  0.03768902  0.17865666    -0.20300
F1069       F  0.53859535  0.08066550  0.13417500    -0.20000
F1070       F  0.49326549  0.18532672  0.28497266    -0.20000
F1071       F  0.46100980  0.14395771  0.29712909    -0.20400
F1072       F  0.45430341  0.18604519  0.25318621    -0.23000
C1073       C  0.39603794  0.04797537  0.29652145    -0.05900
C1074       C  0.38089341  0.07519870  0.27858294     0.00100
C1075       C  0.35258963  0.07815273  0.28813438    -0.08500
C1076       C  0.34292991  0.06062236  0.32010700    -0.05900
C1077       C  0.35858444  0.03523643  0.33914840     0.00000
C1078       C  0.38542188  0.02756114  0.32621100    -0.08400
C1079       C  0.40299319  0.99776032  0.34248225     0.61900
H1080       H  0.41627791  0.04142236  0.28637982     0.12600
H1081       H  0.32209319  0.06569109  0.32938413     0.12700
C1082       C  0.33104363  0.09671924  0.26488753     0.62200
F1083       F  0.42421266  0.98816242  0.31862525    -0.23000
F1084       F  0.38764317  0.96686665  0.34877585    -0.20300
F1085       F  0.41434929  0.00972461  0.37541301    -0.20000
F1086       F  0.33798217  0.09739613  0.22769688    -0.20000
F1087       F  0.32679306  0.13143342  0.27819302    -0.20400
F1088       F  0.30648546  0.07807446  0.26719228    -0.23000
C1089       C  0.41693470  0.04412275  0.13779241    -0.05900
C1090       C  0.40160291  0.07581341  0.14264999     0.00100
C1091       C  0.38471493  0.08814806  0.11374594    -0.08500
C1092       C  0.38352558  0.06785642  0.08068732    -0.05900
C1093       C  0.39802449  0.03538686  0.07616819     0.00000
C1094       C  0.41556211  0.02347332  0.10487331    -0.08400
C1095       C  0.43288275  0.98949159  0.10117744     0.61900
H1096       H  0.42946110  0.03513277  0.16064175     0.12600
H1097       H  0.37031999  0.07653073  0.05844651     0.12700
C1098       C  0.36661890  0.12107171  0.11860911     0.62200
F1099       F  0.45163855  0.98690910  0.12966598    -0.23000
F1100       F  0.44732752  0.98975077  0.06792163    -0.20300
F1101       F  0.41628247  0.95917499  0.10243535    -0.20000
F1102       F  0.38218468  0.15103438  0.12770806    -0.20000
F1103       F  0.34778358  0.11441546  0.14658913    -0.20400
F1104       F  0.35246229  0.12897240  0.08649945    -0.23000
C1105       C  0.49252871  0.88096877  0.72288683    -0.05900
C1106       C  0.47887466  0.85321993  0.74264189     0.00100
C1107       C  0.49537190  0.82839122  0.76290620    -0.08500
C1108       C  0.52384475  0.82913973  0.75704901    -0.05900
C1109       C  0.53711519  0.85549460  0.73541710     0.00000
C1110       C  0.52106085  0.88325787  0.71937496    -0.08400
C1111       C  0.53192412  0.91595702  0.69809637     0.61900
H1112       H  0.48066951  0.90230219  0.71037395     0.12600
H1113       H  0.53618146  0.80857715  0.76980150     0.12700
C1114       C  0.48462955  0.80263873  0.79257294     0.62200
F1115       F  0.51797169  0.94680750  0.70933172    -0.23000
F1116       F  0.52762608  0.91055984  0.66047795    -0.20300
F1117       F  0.55920414  0.92295264  0.70359709    -0.20000
F1118       F  0.46462284  0.78038637  0.77863442    -0.20000
F1119       F  0.47471718  0.82255700  0.82248723    -0.20400
F1120       F  0.50480612  0.78018932  0.80615973    -0.23000
C1121       C  0.38627403  0.91728188  0.67147312    -0.05900
C1122       C  0.39261097  0.87994056  0.67110330     0.00100
C1123       C  0.38763122  0.86007037  0.63754106    -0.08500
C1124       C  0.37064363  0.87552005  0.61069877    -0.05900
C1125       C  0.36173413  0.91134058  0.61378693     0.00000
C1126       C  0.37082967  0.93329819  0.64337250    -0.08400
C1127       C  0.36434165  0.97349083  0.64490059     0.61900
H1128       H  0.39351279  0.93419733  0.69397163     0.12600
H1129       H  0.36531077  0.86000803  0.58604503     0.12700
C1130       C  0.40106535  0.82437260  0.62666101     0.62200
F1131       F  0.37614740  0.99045453  0.67525706    -0.23000
F1132       F  0.33638027  0.97831099  0.64735093    -0.20300
F1133       F  0.37412257  0.99008686  0.61302030    -0.20000
F1134       F  0.42365612  0.81668331  0.64774045    -0.20000
F1135       F  0.41002142  0.82595400  0.59001996    -0.20400
F1136       F  0.38229855  0.79647159  0.62968604    -0.23000
C1137       C  0.38257865  0.87788099  0.83352225    -0.05900
C1138       C  0.40405537  0.88900676  0.81015581     0.00100
C1139       C  0.41920310  0.92064954  0.81919442    -0.08500
C1140       C  0.41257674  0.93965370  0.85200963    -0.05900
C1141       C  0.39170585  0.92794178  0.87599757     0.00000
C1142       C  0.37604515  0.89694721  0.86653115    -0.08400
C1143       C  0.35188498  0.88505138  0.89027098     0.61900
H1144       H  0.37076633  0.85431424  0.82541318     0.12600
H1145       H  0.42443354  0.96321212  0.86003771     0.12700
C1146       C  0.44302039  0.93366011  0.79534826     0.62200
F1147       F  0.33675542  0.85824799  0.87284671    -0.23000
F1148       F  0.33484245  0.91426395  0.89699666    -0.20300
F1149       F  0.36089858  0.87155569  0.92374958    -0.20000
F1150       F  0.43495423  0.93864902  0.75899415    -0.20000
F1151       F  0.46363802  0.90829526  0.79635694    -0.20400
F1152       F  0.45355585  0.96626544  0.80810285    -0.23000
C1153       C  0.46906437  0.37803033  0.19564855    -0.05900
C1154       C  0.45662005  0.36195381  0.22671540     0.00100
C1155       C  0.47310997  0.34580117  0.25439493    -0.08500
C1156       C  0.50149130  0.34593970  0.24910635    -0.05900
C1157       C  0.51399833  0.36135518  0.21770893     0.00000
C1158       C  0.49761794  0.37970418  0.19158496    -0.08400
C1159       C  0.50869252  0.40317757  0.16054514     0.61900
H1160       H  0.45629661  0.39058415  0.17491408     0.12600
H1161       H  0.51442502  0.33449218  0.27018373     0.12700
C1162       C  0.46140731  0.32711982  0.28877343     0.62200
F1163       F  0.50307686  0.38686763  0.12675670    -0.23000
F1164       F  0.53639729  0.40934062  0.16320303    -0.20300
F1165       F  0.49592895  0.43658564  0.16181622    -0.20000
F1166       F  0.48088099  0.30639280  0.30641585    -0.20000
F1167       F  0.44020760  0.30418612  0.27926101    -0.20400
F1168       F  0.45218337  0.35272171  0.31410179    -0.23000
C1169       C  0.37218563  0.24980165  0.21115404    -0.05900
C1170       C  0.39677810  0.26878562  0.20545991     0.00100
C1171       C  0.41999176  0.24878275  0.19253172    -0.08500
C1172       C  0.41855214  0.21068146  0.19268247    -0.05900
C1173       C  0.39478764  0.19185388  0.20300875     0.00000
C1174       C  0.37047727  0.21202316  0.20892436    -0.08400
C1175       C  0.34218066  0.19583559  0.21252102     0.61900
H1176       H  0.35373960  0.26483894  0.21775685     0.12600
H1177       H  0.43672263  0.19525450  0.18629015     0.12700
C1178       C  0.44634440  0.26594903  0.17869212     0.62200
F1179       F  0.32410462  0.21507715  0.19086871    -0.23000
F1180       F  0.33356970  0.19794886  0.24922389    -0.20300
F1181       F  0.34131462  0.16048057  0.20047474    -0.20000
F1182       F  0.46640115  0.24052563  0.17097596    -0.20000
F1183       F  0.45654807  0.28900812  0.20526623    -0.20400
F1184       F  0.44166753  0.28416543  0.14594115    -0.23000
C1185       C  0.37024667  0.40746141  0.30370663    -0.05900
C1186       C  0.36290479  0.37402500  0.28729749     0.00100
C1187       C  0.33964445  0.35564822  0.30239766    -0.08500
C1188       C  0.32955171  0.36658397  0.33749960    -0.05900
C1189       C  0.33918193  0.39774579  0.35572131     0.00000
C1190       C  0.35891659  0.41970802  0.33760298    -0.08400
C1191       C  0.36775396  0.45627828  0.35311987     0.61900
H1192       H  0.38534905  0.42413010  0.28986568     0.12600
H1193       H  0.31294985  0.35140528  0.35018082     0.12700
C1194       C  0.32287128  0.32711117  0.28201453     0.62200
F1195       F  0.38305223  0.47576708  0.32751589    -0.23000
F1196       F  0.38370898  0.45137611  0.38413825    -0.20300
F1197       F  0.34510016  0.47683967  0.36254855    -0.20000
F1198       F  0.32834173  0.29323512  0.29632836    -0.20000
F1199       F  0.32754455  0.32705055  0.24404754    -0.20400
F1200       F  0.29529652  0.33405056  0.28717500    -0.23000
C1201       C  0.46476656  0.60185784  0.77590275    -0.05900
C1202       C  0.45284734  0.61383526  0.74285038     0.00100
C1203       C  0.47020478  0.62387233  0.71256559    -0.08500
C1204       C  0.49857740  0.61979502  0.71643253    -0.05900
C1205       C  0.51065817  0.60819518  0.74962923     0.00000
C1206       C  0.49325753  0.59831484  0.77978597    -0.08400
C1207       C  0.50401460  0.57982665  0.81403905     0.61900
H1208       H  0.45131424  0.59346903  0.79835561     0.12600
H1209       H  0.51170304  0.62669719  0.69305582     0.12700
C1210       C  0.46091708  0.63977427  0.67577290     0.62200
F1211       F  0.48334615  0.57000390  0.83859761    -0.23000
F1212       F  0.52177232  0.60217846  0.83299642    -0.20300
F1213       F  0.51711007  0.54865452  0.80280679    -0.20000
F1214       F  0.43376494  0.64946939  0.67512443    -0.20000
F1215       F  0.46571448  0.61484998  0.64756380    -0.20400
F1216       F  0.47595871  0.67072670  0.66830494    -0.23000
C1217       C  0.41621110  0.70668385  0.74082980    -0.05900
C1218       C  0.39160104  0.69551155  0.75713903     0.00100
C1219       C  0.37358043  0.72231112  0.77170103    -0.08500
C1220       C  0.38186055  0.75902664  0.77095110    -0.05900
C1221       C  0.40582327  0.77015991  0.75234052     0.00000
C1222       C  0.42259640  0.74322211  0.73522898    -0.08400
C1223       C  0.44621311  0.75013944  0.70843784     0.61900
H1224       H  0.42993010  0.68647388  0.72963218     0.12600
H1225       H  0.36829806  0.77958207  0.78234979     0.12700
C1226       C  0.34529401  0.71439326  0.78708742     0.62200
F1227       F  0.46937214  0.73307586  0.72123063    -0.23000
F1228       F  0.45227426  0.78611646  0.70368355    -0.20300
F1229       F  0.43977979  0.73573021  0.67396029    -0.20000
F1230       F  0.34451650  0.72270958  0.82467325    -0.20000
F1231       F  0.33752289  0.67878414  0.78232073    -0.20400
F1232       F  0.32643979  0.73571639  0.76903549    -0.23000
C1233       C  0.37249098  0.58756440  0.64828807    -0.05900
C1234       C  0.36014748  0.58675619  0.68398191     0.00100
C1235       C  0.33339296  0.57149325  0.68683609    -0.08500
C1236       C  0.32364561  0.55028919  0.65716622    -0.05900
C1237       C  0.33748130  0.54799695  0.62286664     0.00000
C1238       C  0.36151113  0.56887398  0.61754035    -0.08400
C1239       C  0.37540702  0.57234824  0.57971465     0.61900
H1240       H  0.39108491  0.60295217  0.64437456     0.12600
H1241       H  0.30421284  0.53643244  0.66041539     0.12700
C1242       C  0.31326857  0.57818882  0.71866430     0.62200
F1243       F  0.39375759  0.60094432  0.57901022    -0.23000
F1244       F  0.35624875  0.57855403  0.55244048    -0.20300
F1245       F  0.38965275  0.54102617  0.57144662    -0.20000
F1246       F  0.32073958  0.60667972  0.74143460    -0.20000
F1247       F  0.31045512  0.54707494  0.73959449    -0.20400
F1248       F  0.28798651  0.58684771  0.70428625    -0.23000
C1249       C  0.36578960  0.38859068  0.08825361    -0.05900
C1250       C  0.37894308  0.42220261  0.08323591     0.00100
C1251       C  0.39591585  0.43597387  0.11212119    -0.08500
C1252       C  0.39776728  0.41658137  0.14551954    -0.05900
C1253       C  0.38407515  0.38374170  0.15064171     0.00000
C1254       C  0.36822704  0.36896802  0.12162884    -0.08400
C1255       C  0.35417239  0.33261497  0.12619419     0.61900
H1256       H  0.35343295  0.37787859  0.06587548     0.12600
H1257       H  0.41001468  0.42694155  0.16820658     0.12700
C1258       C  0.41313719  0.46999315  0.10750873     0.62200
F1259       F  0.33638644  0.33392818  0.15632845    -0.23000
F1260       F  0.37353577  0.30612863  0.13216009    -0.20300
F1261       F  0.33943851  0.32299359  0.09494727    -0.20000
F1262       F  0.39651302  0.50017120  0.10632664    -0.20000
F1263       F  0.42843752  0.46742010  0.07504775    -0.20400
F1264       F  0.43112552  0.47486164  0.13664951    -0.23000
C1265       C  0.40040992  0.54428543  0.82273974    -0.05900
C1266       C  0.38512348  0.57621655  0.81986277     0.00100
C1267       C  0.36758811  0.58668589  0.84945148    -0.08500
C1268       C  0.36571383  0.56464119  0.88109487    -0.05900
C1269       C  0.38045514  0.53222354  0.88384531     0.00000
C1270       C  0.39858624  0.52202491  0.85443535    -0.08400
C1271       C  0.41662284  0.48868708  0.85678940     0.61900
H1272       H  0.41352251  0.53668024  0.79951278     0.12600
H1273       H  0.35217862  0.57227116  0.90385099     0.12700
C1274       C  0.35035295  0.62048216  0.84704232     0.62200
F1275       F  0.43437689  0.48594825  0.82664661    -0.23000
F1276       F  0.43211274  0.49045636  0.88875346    -0.20300
F1277       F  0.40070703  0.45771403  0.85736707    -0.20000
F1278       F  0.33247550  0.61692335  0.81773123    -0.20000
F1279       F  0.36712786  0.65015301  0.84146542    -0.20400
F1280       F  0.33515091  0.62650778  0.87918663    -0.23000
C1281       C  0.62098025  0.39996528  0.09198076    -0.05900
C1282       C  0.59848582  0.40505678  0.06893045     0.00100
C1283       C  0.57365512  0.38701421  0.07716682    -0.08500
C1284       C  0.57078613  0.36943741  0.11157545    -0.05900
C1285       C  0.59232321  0.36830894  0.13708744     0.00000
C1286       C  0.61873161  0.37930703  0.12460813    -0.08400
C1287       C  0.64506221  0.36775765  0.14291713     0.61900
H1288       H  0.64060223  0.41128106  0.08388744     0.12600
H1289       H  0.55115096  0.35840562  0.11930982     0.12700
C1290       C  0.55022680  0.38708003  0.04996772     0.62200
F1291       F  0.66262680  0.35370862  0.11608341    -0.23000
F1292       F  0.64086614  0.34104478  0.16918422    -0.20300
F1293       F  0.65744382  0.39739626  0.15943649    -0.20000
F1294       F  0.52827503  0.36663194  0.06236215    -0.20000
F1295       F  0.55908593  0.37235580  0.01654092    -0.20400
F1296       F  0.54138319  0.42214258  0.04452215    -0.23000
C1297       C  0.57366504  0.54822612  0.82764380    -0.05900
C1298       C  0.58502887  0.58281071  0.82434019     0.00100
C1299       C  0.60024966  0.59737032  0.85424870    -0.08500
C1300       C  0.60389139  0.57618689  0.88648805    -0.05900
C1301       C  0.59229785  0.54142797  0.88952168     0.00000
C1302       C  0.57540062  0.52828961  0.86046478    -0.08400
C1303       C  0.55781222  0.49451983  0.86459419     0.61900
H1304       H  0.56380041  0.53638443  0.80366180     0.12600
H1305       H  0.61627735  0.58625715  0.90914748     0.12700
C1306       C  0.61337426  0.63431538  0.85131117     0.62200
F1307       F  0.53849134  0.49179076  0.83687910    -0.23000
F1308       F  0.54391540  0.49601459  0.89824637    -0.20300
F1309       F  0.57373725  0.46370488  0.86280307    -0.20000
F1310       F  0.59328127  0.66003804  0.84644613    -0.20000
F1311       F  0.63130762  0.63465588  0.82132116    -0.20400
F1312       F  0.62782037  0.64339509  0.88298103    -0.23000
C1313       C  0.50392458  0.50015664  0.99360717    -0.05900
C1314       C  0.51697993  0.47035718  0.97655851     0.00100
C1315       C  0.50070249  0.44313781  0.95939920    -0.08500
C1316       C  0.47210899  0.44592474  0.96247294    -0.05900
C1317       C  0.45913116  0.47534544  0.98044621     0.00000
C1318       C  0.47548657  0.50375338  0.99537516    -0.08400
C1319       C  0.46372421  0.53829459  0.01266252     0.61900
H1320       H  0.51633496  0.52140363  0.00559088     0.12600
H1321       H  0.45955533  0.42490173  0.95030134     0.12700
C1322       C  0.51279304  0.41145376  0.93752561     0.62200
F1323       F  0.48386371  0.56238565  0.02368548    -0.23000
F1324       F  0.44776850  0.55591653  0.98691172    -0.20300
F1325       F  0.44832337  0.53009104  0.04394858    -0.20000
F1326       F  0.49284673  0.38865688  0.92343559    -0.20000
F1327       F  0.52917676  0.39100937  0.96020031    -0.20400
F1328       F  0.52797233  0.42415837  0.90769403    -0.23000
loop_ 
_geom_bond_atom_site_label_1 
_geom_bond_atom_site_label_2 
_geom_bond_distance 
_geom_bond_site_symmetry_2 
_ccdc_geom_bond_type 
O1           Cu9   2.008       .  S
O1           C11   1.278       .  A
O2           Cu9   2.012       .  S
O2           C12   1.276       .  A
O3           Cu9   1.989       .  S
O3           C13   1.274       .  A
O4           Cu9   2.009   1_554  S
O4           C14   1.276       .  A
O5          Cu10   2.019       .  S
O5           C14   1.279       .  A
O6          Cu10   2.034   1_556  S
O6           C13   1.280       .  A
O7          Cu10   1.976   1_556  S
O7           C12   1.277       .  A
O8          Cu10   1.988       .  S
O8           C11   1.274   1_554  A
Cu9         Cu10   2.371   1_556  S
C11         C314   1.456       .  S
C12        C1314   1.491       .  S
C13        C1301   1.485       .  S
C14        C1282   1.475       .  S
O15         Cu23   2.001       .  S
O15          C25   1.277       .  A
O16         Cu23   2.004   1_554  S
O16          C26   1.276       .  A
O17         Cu23   1.988       .  S
O17          C27   1.273       .  A
O18         Cu23   2.001       .  S
O18          C28   1.275       .  A
O19         Cu24   2.015       .  S
O19          C28   1.277       .  A
O20         Cu24   1.999       .  S
O20          C27   1.278       .  A
O21         Cu24   2.030   1_554  S
O21          C26   1.280       .  A
O22         Cu24   2.022       .  S
O22          C25   1.279       .  A
Cu23        Cu24   2.367       .  S
C25        C1269   1.486       .  S
C26        C1250   1.492       .  S
C27        C1317   1.490       .  S
C28         C438   1.461       .  S
C29          C30   1.542       .  S
C29          C35   1.533       .  S
C29          C33   1.550       .  S
C29        C1234   1.542       .  S
C30          H37   1.086       .  S
C30          C31   1.369       .  D
C31          C32   1.542       .  S
C31        C1218   1.493       .  S
C32          C36   1.546       .  S
C32          C34   1.542       .  S
C32          H38   1.111       .  S
C33          H39   1.085       .  S
C33          C34   1.366       .  D
C34        C1202   1.493       .  S
C35          H40   1.084       .  S
C35          C36   1.360       .  D
C36        C1266   1.485       .  S
C41          C42   1.541       .  S
C41          C47   1.531       .  S
C41          C45   1.542       .  S
C41        C1186   1.541       .  S
C42          H49   1.081       .  S
C42          C43   1.376       .  D
C43          C44   1.541       .  S
C43        C1170   1.507       .  S
C44          C48   1.536       .  S
C44          C46   1.540       .  S
C44          H50   1.098       .  S
C45          H51   1.082       .  S
C45          C46   1.361       .  D
C46        C1154   1.480       .  S
C47          H52   1.086       .  S
C47          C48   1.361       .  D
C48        C1253   1.479       .  S
N53          N54   1.322       .  A
N53          C57   1.346       .  A
N53         Cu61   2.085       .  S
N54          C55   1.342       .  A
N54         Cu60   2.059       .  S
C55          C56   1.382       .  A
C55          H58   1.082       .  S
C56        C1189   1.483       .  S
C56          C57   1.388       .  A
C57          H59   1.079       .  S
Cu60         N63   2.058       .  S
Cu61         N71   2.086       .  S
Cu62         N64   2.064       .  S
Cu62         N70   2.065       .  S
N63          N64   1.321       .  A
N63          C67   1.343       .  A
N64          C65   1.344       .  A
C65          C66   1.379       .  A
C65          H68   1.082       .  S
C66         C259   1.454       .  S
C66          C67   1.377       .  A
C67          H69   1.082       .  S
N70          N71   1.322       .  A
N70          C74   1.342       .  A
N71          C72   1.347       .  A
C72          C73   1.389       .  A
C72          H75   1.080       .  S
C73        C1237   1.486       .  S
C73          C74   1.383       .  A
C74          H76   1.082       .  S
C77          C78   1.540       .  S
C77          C83   1.530       .  S
C77          C81   1.532       .  S
C77        C1122   1.537       .  S
C78          H85   1.085       .  S
C78          C79   1.356       .  D
C79          C80   1.540       .  S
C79        C1138   1.481       .  S
C80          C84   1.557       .  S
C80          C82   1.552       .  S
C80          H86   1.095       .  S
C81          H87   1.085       .  S
C81          C82   1.380       .  D
C82        C1106   1.521       .  S
C83          H88   1.083       .  S
C83          C84   1.360       .  D
C84        C1221   1.490       .  S
C89          C90   1.528       .  S
C89          C95   1.544       .  S
C89          C93   1.548       .  S
C89        C1074   1.538       .  S
C90          H97   1.087       .  S
C90          C91   1.356       .  D
C91          C92   1.533       .  S
C91        C1090   1.475       .  S
C92          C96   1.548       .  S
C92          C94   1.540       .  S
C92          H98   1.110       .  S
C93          H99   1.083       .  S
C93          C94   1.362       .  D
C94        C1058   1.486       .  S
C95         H100   1.083       .  S
C95          C96   1.374       .  D
C96        C1173   1.498       .  S
N101        N102   1.321       .  A
N101        C105   1.340       .  A
N101       Cu109   2.046       .  S
N102        C103   1.346       .  A
N102       Cu108   2.076       .  S
C103        C104   1.382       .  A
C103        H106   1.082       .  S
C104       C1125   1.466       .  S
C104        C105   1.375       .  A
C105        H107   1.082       .  S
Cu108       N111   2.077       .  S
Cu109       N119   2.045       .  S
Cu110       N112   2.073       .  S
Cu110       N118   2.073       .  S
N111        N112   1.324       .  A
N111        C115   1.344       .  A
N112        C113   1.346       .  A
C113        C114   1.380       .  A
C113        H116   1.082       .  S
C114        C386   1.461       .  S
C114        C115   1.380       .  A
C115        H117   1.082       .  S
N118        N119   1.319       .  A
N118        C122   1.341   1_565  A
N119        C120   1.341   1_565  A
C120        C121   1.382       .  A
C120        H123   1.082       .  S
C121       C1077   1.482       .  S
C121        C122   1.389       .  A
C122        H124   1.080       .  S
O125       Cu133   1.994       .  S
O125        C135   1.275       .  A
O126       Cu133   1.992       .  S
O126        C136   1.274       .  A
O127       Cu133   1.999   1_554  S
O127        C137   1.276   1_565  A
O128       Cu133   2.016       .  S
O128        C138   1.277       .  A
O129       Cu134   1.995   1_565  S
O129        C138   1.278       .  A
O130       Cu134   2.004   1_554  S
O130        C137   1.277       .  A
O131       Cu134   2.001       .  S
O131        C136   1.276   1_545  A
O132       Cu134   2.005       .  S
O132        C135   1.278   1_545  A
Cu133      Cu134   2.372   1_565  S
C135       C1042   1.475       .  S
C136        C362   1.452       .  S
C137       C1010   1.483       .  S
C138       C1029   1.486       .  S
O139       Cu147   1.994       .  S
O139        C149   1.274       .  A
O140       Cu147   2.003   1_554  S
O140        C150   1.276   1_565  A
O141       Cu147   2.018       .  S
O141        C151   1.279       .  A
O142       Cu147   2.011       .  S
O142        C152   1.279       .  A
O143       Cu148   1.996       .  S
O143        C152   1.274   1_545  A
O144       Cu148   2.010       .  S
O144        C151   1.276   1_545  A
O145       Cu148   1.997   1_554  S
O145        C150   1.278       .  A
O146       Cu148   2.014   1_565  S
O146        C149   1.280       .  A
Cu147      Cu148   2.374   1_565  S
C149       C1141   1.476       .  S
C150       C1093   1.476       .  S
C151        C486   1.467       .  S
C152       C1045   1.477       .  S
C153        C154   1.531       .  S
C153        C159   1.545       .  S
C153        C157   1.552       .  S
C153        C997   1.542       .  S
C154        H161   1.087       .  S
C154        C155   1.364       .  D
C155        C156   1.540       .  S
C155        C978   1.483       .  S
C156        C160   1.533       .  S
C156        C158   1.542       .  S
C156        H162   1.110       .  S
C157        H163   1.084       .  S
C157        C158   1.368       .  D
C158       C1109   1.497       .  S
C159        H164   1.081       .  S
C159        C160   1.363       .  D
C160       C1026   1.486       .  S
C165        C166   1.535       .  S
C165        C171   1.545       .  S
C165        C169   1.547       .  S
C165        C965   1.553       .  S
C166        H173   1.086       .  S
C166        C167   1.367       .  D
C167        C168   1.545       .  S
C167        C946   1.493       .  S
C168        C172   1.546       .  S
C168        C170   1.545       .  S
C168        H174   1.110       .  S
C169        H175   1.085       .  S
C169        C170   1.371       .  D
C170       C1061   1.497       .  S
C171        H176   1.084       .  S
C171        C172   1.359       .  D
C172       C1013   1.486       .  S
N177        N178   1.322       .  A
N177        C181   1.348       .  A
N177       Cu185   2.097       .  S
N178        C179   1.343       .  A
N178       Cu184   2.061       .  S
C179        C180   1.382       .  A
C179        H182   1.082       .  S
C180        C994   1.487       .  S
C180        C181   1.390       .  A
C181        H183   1.081       .  S
Cu184       N187   2.061       .  S
Cu185       N195   2.097       .  S
Cu186       N188   2.082   1_545  S
Cu186       N194   2.083       .  S
N187        N188   1.322       .  A
N187        C191   1.343       .  A
N188        C189   1.347       .  A
C189        C190   1.383       .  A
C189        H192   1.082   1_565  S
C190        C400   1.462       .  S
C190        C191   1.378       .  A
C191        H193   1.082       .  S
N194        N195   1.323   1_545  A
N194        C198   1.345       .  A
N195        C196   1.351   1_565  A
C196        C197   1.389       .  A
C196        H199   1.082   1_545  S
C197        C962   1.491       .  S
C197        C198   1.385       .  A
C198        H200   1.080       .  S
C201        C202   1.525       .  S
C201        C207   1.535       .  S
C201        C205   1.549       .  S
C201        C930   1.542       .  S
C202        H209   1.087       .  S
C202        C203   1.362       .  D
C203        C204   1.552       .  S
C203       C1298   1.488       .  S
C204        C208   1.546       .  S
C204        C206   1.553       .  S
C204        H210   1.107       .  S
C205        H211   1.085       .  S
C205        C206   1.371       .  D
C206       C1205   1.506       .  S
C207        H212   1.084       .  S
C207        C208   1.363       .  D
C208        C981   1.486       .  S
C213        C214   1.546       .  S
C213        C219   1.542       .  S
C213        C217   1.520       .  S
C213        C917   1.543       .  S
C214        H221   1.080       .  S
C214        C215   1.372       .  D
C215        C216   1.549       .  S
C215       C1285   1.502       .  S
C216        C220   1.544       .  S
C216        C218   1.551       .  S
C216        H222   1.106       .  S
C217        H223   1.088       .  S
C217        C218   1.355       .  D
C218       C1157   1.484       .  S
C219        H224   1.081       .  S
C219        C220   1.370       .  D
C220        C949   1.499       .  S
N225        N226   1.322       .  A
N225        C229   1.345       .  A
N225       Cu233   2.075       .  S
N226        C227   1.343       .  A
N226       Cu232   2.068       .  S
C227        C228   1.381       .  A
C227        H230   1.081       .  S
C228        C914   1.478       .  S
C228        C229   1.384       .  A
C229        H231   1.082       .  S
Cu232       N235   2.067       .  S
Cu233       N243   2.075       .  S
Cu234       N236   2.072       .  S
Cu234       N242   2.073       .  S
N235        N236   1.322       .  A
N235        C239   1.345       .  A
N236        C237   1.344       .  A
C237        C238   1.380       .  A
C237        H240   1.082       .  S
C238        C275   1.462       .  S
C238        C239   1.381       .  A
C239        H241   1.082       .  S
N242        N243   1.321       .  A
N242        C246   1.344       .  A
N243        C244   1.346       .  A
C244        C245   1.385       .  A
C244        H247   1.081       .  S
C245        C933   1.481       .  S
C245        C246   1.384       .  A
C246        H248   1.082       .  S
O249       Cu257   2.001       .  S
O249        C259   1.275       .  A
O250       Cu257   2.002       .  S
O250        C260   1.276       .  A
O251       Cu257   2.022       .  S
O251        C261   1.278       .  A
O252       Cu257   2.024       .  S
O252        C262   1.279       .  A
O253       Cu258   2.004       .  S
O253        C262   1.276       .  A
O254       Cu258   2.001       .  S
O254        C261   1.279       .  A
O255       Cu258   2.003       .  S
O255        C260   1.278       .  A
O256       Cu258   2.001       .  S
O256        C259   1.275       .  A
Cu257      Cu258   2.371       .  S
C260        C901   1.481       .  S
C261        C882   1.496       .  S
C262        C866   1.479       .  S
O263       Cu271   2.022       .  S
O263        C273   1.277       .  A
O264       Cu271   2.009       .  S
O264        C274   1.278       .  A
O265       Cu271   2.011       .  S
O265        C275   1.278       .  A
O266       Cu271   2.006       .  S
O266        C276   1.277       .  A
O267       Cu272   2.005       .  S
O267        C276   1.278       .  A
O268       Cu272   2.003       .  S
O268        C275   1.276       .  A
O269       Cu272   1.990       .  S
O269        C274   1.274       .  A
O270       Cu272   1.972       .  S
O270        C273   1.276       .  A
Cu271      Cu272   2.374       .  S
C273        C834   1.478       .  S
C274        C850   1.464       .  S
C276        C898   1.484       .  S
C277        C278   1.528       .  S
C277        C283   1.549       .  S
C277        C281   1.538       .  S
C277        C818   1.538       .  S
C278        H285   1.086       .  S
C278        C279   1.365       .  D
C279        C280   1.547       .  S
C279        C853   1.491       .  S
C280        C284   1.539       .  S
C280        C282   1.545       .  S
C280        H286   1.110       .  S
C281        H287   1.087       .  S
C281        C282   1.354       .  D
C282        C786   1.483       .  S
C283        H288   1.083       .  S
C283        C284   1.373       .  D
C284        C802   1.490       .  S
C289        C290   1.525       .  S
C289        C295   1.553       .  S
C289        C293   1.545       .  S
C289        C773   1.553       .  S
C290        H297   1.083       .  S
C290        C291   1.360       .  D
C291        C292   1.544       .  S
C291        C837   1.476       .  S
C292        C296   1.546       .  S
C292        C294   1.526       .  S
C292        H298   1.110       .  S
C293        H299   1.084       .  S
C293        C294   1.367       .  D
C294        C738   1.486       .  S
C295        H300   1.081       .  S
C295        C296   1.367       .  D
C296        C754   1.504       .  S
N301        N302   1.321       .  A
N301        C305   1.343       .  A
N301       Cu309   2.059       .  S
N302        C303   1.340       .  A
N302       Cu308   2.055       .  S
C303        C304   1.379       .  A
C303        H306   1.082       .  S
C304        C821   1.467       .  S
C304        C305   1.381       .  A
C305        H307   1.081       .  S
Cu308       N311   2.055       .  S
Cu309       N319   2.059   1_556  S
Cu310       N312   2.065       .  S
Cu310       N318   2.067       .  S
N311        N312   1.321   1_556  A
N311        C315   1.342       .  A
N312        C313   1.343       .  A
C313        C314   1.380   1_554  A
C313        H316   1.082       .  S
C314        C315   1.377       .  A
C315        H317   1.082       .  S
N318        N319   1.323       .  A
N318        C322   1.344       .  A
N319        C320   1.342       .  A
C320        C321   1.378       .  A
C320        H323   1.082       .  S
C321        C770   1.468       .  S
C321        C322   1.380       .  A
C322        H324   1.082       .  S
C325        C326   1.532       .  S
C325        C331   1.542       .  S
C325        C329   1.530       .  S
C325        C706   1.535       .  S
C326        H333   1.085       .  S
C326        C327   1.364       .  D
C327        C328   1.551       .  S
C327        C805   1.492       .  S
C328        C332   1.550       .  S
C328        C330   1.548       .  S
C328        H334   1.106       .  S
C329        H335   1.087       .  S
C329        C330   1.362       .  D
C330        C690   1.491       .  S
C331        H336   1.084       .  S
C331        C332   1.365       .  D
C332        C722   1.492       .  S
C337        C338   1.547       .  S
C337        C343   1.526       .  S
C337        C341   1.529       .  S
C337        C658   1.540       .  S
C338        H345   1.081       .  S
C338        C339   1.374       .  D
C339        C340   1.550       .  S
C339        C757   1.511       .  S
C340        C344   1.554       .  S
C340        C342   1.544       .  S
C340        H346   1.103       .  S
C341        H347   1.087       .  S
C341        C342   1.358       .  D
C342        C642   1.486       .  S
C343        H348   1.085       .  S
C343        C344   1.364       .  D
C344        C674   1.490       .  S
N349        N350   1.323       .  A
N349        C353   1.344       .  A
N349       Cu357   2.066   1_554  S
N350        C351   1.343   1_565  A
N350       Cu356   2.068       .  S
C351        C352   1.378       .  A
C351        H354   1.082       .  S
C352        C661   1.467       .  S
C352        C353   1.379   1_545  A
C353        H355   1.082       .  S
Cu356       N359   2.067       .  S
Cu357       N367   2.065       .  S
Cu358       N360   2.042       .  S
Cu358       N366   2.044       .  S
N359        N360   1.321   1_554  A
N359        C363   1.344       .  A
N360        C361   1.340       .  A
C361        C362   1.375       .  A
C361        H364   1.082       .  S
C362        C363   1.381   1_556  A
C363        H365   1.082       .  S
N366        N367   1.320       .  A
N366        C370   1.340       .  A
N367        C368   1.342       .  A
C368        C369   1.382       .  A
C368        H371   1.082       .  S
C369        C709   1.468       .  S
C369        C370   1.377       .  A
C370        H372   1.081       .  S
O373       Cu381   2.004       .  S
O373        C383   1.280   1_565  A
O374       Cu381   2.009       .  S
O374        C384   1.276       .  A
O375       Cu381   2.004       .  S
O375        C385   1.278       .  A
O376       Cu381   2.011       .  S
O376        C386   1.277       .  A
O377       Cu382   2.004   1_565  S
O377        C386   1.276       .  A
O378       Cu382   2.004       .  S
O378        C385   1.276   1_545  A
O379       Cu382   2.002   1_565  S
O379        C384   1.279       .  A
O380       Cu382   2.015       .  S
O380        C383   1.276       .  A
Cu381      Cu382   2.368   1_565  S
C383        C594   1.501       .  S
C384        C610   1.487       .  S
C385        C626   1.476       .  S
O387       Cu395   2.028       .  S
O387        C397   1.280       .  A
O388       Cu395   2.032       .  S
O388        C398   1.281   1_565  A
O389       Cu395   1.995       .  S
O389        C399   1.275       .  A
O390       Cu395   2.003       .  S
O390        C400   1.276       .  A
O391       Cu396   2.015       .  S
O391        C400   1.277   1_545  A
O392       Cu396   2.017       .  S
O392        C399   1.278   1_545  A
O393       Cu396   1.995       .  S
O393        C398   1.274       .  A
O394       Cu396   2.004   1_565  S
O394        C397   1.276       .  A
Cu395      Cu396   2.371   1_565  S
C397        C725   1.499       .  S
C398        C677   1.474       .  S
C399        C629   1.476       .  S
C401        C402   1.541       .  S
C401        C407   1.549       .  S
C401        C405   1.535       .  S
C401        C581   1.555       .  S
C402        H409   1.084       .  S
C402        C403   1.380       .  D
C403        C404   1.549       .  S
C403        C562   1.512       .  S
C404        C408   1.534       .  S
C404        C406   1.541       .  S
C404        H410   1.101       .  S
C405        H411   1.084       .  S
C405        C406   1.363       .  D
C406        C789   1.486       .  S
C407        H412   1.083       .  S
C407        C408   1.361       .  D
C408        C885   1.483       .  S
C413        C414   1.545       .  S
C413        C419   1.546       .  S
C413        C417   1.519       .  S
C413        C546   1.546       .  S
C414        H421   1.081       .  S
C414        C415   1.371       .  D
C415        C416   1.544       .  S
C415        C530   1.504       .  S
C416        C420   1.556       .  S
C416        C418   1.553       .  S
C416        H422   1.104       .  S
C417        H423   1.088       .  S
C417        C418   1.355       .  D
C418        C741   1.481       .  S
C419        H424   1.074       .  S
C419        C420   1.370       .  D
C420        C869   1.514       .  S
N425        N426   1.324       .  A
N425        C429   1.348       .  A
N425       Cu433   2.089       .  S
N426        C427   1.347       .  A
N426       Cu432   2.084       .  S
C427        C428   1.383       .  A
C427        H430   1.082       .  S
C428        C578   1.482       .  S
C428        C429   1.385       .  A
C429        H431   1.082       .  S
Cu432       N435   2.084       .  S
Cu433       N443   2.088   1_556  S
Cu434       N436   2.060       .  S
Cu434       N442   2.060       .  S
N435        N436   1.322   1_556  A
N435        C439   1.347       .  A
N436        C437   1.344       .  A
C437        C438   1.378   1_554  A
C437        H440   1.082       .  S
C438        C439   1.383       .  A
C439        H441   1.082       .  S
N442        N443   1.323       .  A
N442        C446   1.343       .  A
N443        C444   1.347       .  A
C444        C445   1.384       .  A
C444        H447   1.081       .  S
C445        C549   1.474       .  S
C445        C446   1.378       .  A
C446        H448   1.082       .  S
C449        C450   1.539       .  S
C449        C455   1.556       .  S
C449        C453   1.538       .  S
C449        C517   1.557       .  S
C450        H457   1.085       .  S
C450        C451   1.365       .  D
C451        C452   1.538       .  S
C451        C613   1.487       .  S
C452        C456   1.538       .  S
C452        C454   1.535       .  S
C452        H458   1.111       .  S
C453        H459   1.084       .  S
C453        C454   1.368       .  D
C454        C693   1.485       .  S
C455        H460   1.076       .  S
C455        C456   1.370       .  D
C456        C565   1.498       .  S
C461        C462   1.541       .  S
C461        C467   1.535       .  S
C461        C465   1.543       .  S
C461        C498   1.548       .  S
C462        H469   1.079       .  S
C462        C463   1.360       .  D
C463        C464   1.550       .  S
C463        C597   1.495       .  S
C464        C468   1.548       .  S
C464        C466   1.536       .  S
C464        H470   1.109       .  S
C465        H471   1.086       .  S
C465        C466   1.367       .  D
C466        C645   1.494       .  S
C467        H472   1.084       .  S
C467        C468   1.368       .  D
C468        C533   1.489       .  S
N473        N474   1.320       .  A
N473        C477   1.344       .  A
N473       Cu481   2.072       .  S
N474        C475   1.346       .  A
N474       Cu480   2.074       .  S
C475        C476   1.387       .  A
C475        H478   1.081       .  S
C476        C514   1.485       .  S
C476        C477   1.386       .  A
C477        H479   1.081       .  S
Cu480       N483   2.074       .  S
Cu481       N491   2.073   1_566  S
Cu482       N484   2.088   1_544  S
Cu482       N490   2.088       .  S
N483        N484   1.324       .  A
N483        C487   1.344       .  A
N484        C485   1.349   1_565  A
C485        C486   1.385   1_545  A
C485        H488   1.082   1_556  S
C486        C487   1.379       .  A
C487        H489   1.081       .  S
N490        N491   1.324       .  A
N490        C494   1.348       .  A
N491        C492   1.344       .  A
C492        C493   1.380       .  A
C492        H495   1.082       .  S
C493        C501   1.477       .  S
C493        C494   1.384       .  A
C494        H496   1.082       .  S
C497        C498   1.416       .  A
C497        C502   1.403       .  A
C497        H504   1.077       .  S
C498        C499   1.435       .  A
C499        C506   1.524       .  S
C499        C500   1.412       .  A
C500        C501   1.398       .  A
C500        H505   1.085       .  S
C501        C502   1.409       .  A
C502        C503   1.521   1_545  S
C503        F507   1.385       .  S
C503        F508   1.383   1_565  S
C503        F509   1.382       .  S
C506        F510   1.383       .  S
C506        F511   1.377       .  S
C506        F512   1.385       .  S
C513        C514   1.395       .  A
C513        C518   1.407       .  A
C513        H520   1.085       .  S
C514        C515   1.409       .  A
C515        C522   1.521       .  S
C515        C516   1.409       .  A
C516        C517   1.421       .  A
C516        H521   1.064       .  S
C517        C518   1.441       .  A
C518        C519   1.524       .  S
C519        F523   1.384       .  S
C519        F524   1.366       .  S
C519        F525   1.384       .  S
C522        F526   1.384       .  S
C522        F527   1.380       .  S
C522        F528   1.385       .  S
C529        C530   1.407       .  A
C529        C534   1.409       .  A
C529        H536   1.084       .  S
C530        C531   1.425       .  A
C531        C538   1.514       .  S
C531        C532   1.409       .  A
C532        C533   1.398       .  A
C532        H537   1.080       .  S
C533        C534   1.416       .  A
C534        C535   1.516       .  S
C535        F539   1.384       .  S
C535        F540   1.383       .  S
C535        F541   1.383       .  S
C538        F542   1.378       .  S
C538        F543   1.378       .  S
C538        F544   1.385       .  S
C545        C546   1.416       .  A
C545        C550   1.402       .  A
C545        H552   1.075       .  S
C546        C547   1.438       .  A
C547        C554   1.527       .  S
C547        C548   1.410       .  A
C548        C549   1.396       .  A
C548        H553   1.084       .  S
C549        C550   1.407       .  A
C550        C551   1.520       .  S
C551        F555   1.385       .  S
C551        F556   1.383       .  S
C551        F557   1.382       .  S
C554        F558   1.386       .  S
C554        F559   1.379       .  S
C554        F560   1.382       .  S
C561        C562   1.408       .  A
C561        C566   1.403       .  A
C561        H568   1.084       .  S
C562        C563   1.429       .  A
C563        C570   1.518       .  S
C563        C564   1.413       .  A
C564        C565   1.404       .  A
C564        H569   1.081       .  S
C565        C566   1.416       .  A
C566        C567   1.516       .  S
C567        F571   1.384       .  S
C567        F572   1.383       .  S
C567        F573   1.382       .  S
C570        F574   1.385       .  S
C570        F575   1.374       .  S
C570        F576   1.382       .  S
C577        C578   1.397       .  A
C577        C582   1.413       .  A
C577        H584   1.084       .  S
C578        C579   1.409       .  A
C579        C586   1.520       .  S
C579        C580   1.407       .  A
C580        C581   1.418       .  A
C580        H585   1.075       .  S
C581        C582   1.437       .  A
C582        C583   1.523       .  S
C583        F587   1.385       .  S
C583        F588   1.374       .  S
C583        F589   1.382       .  S
C586        F590   1.383       .  S
C586        F591   1.382       .  S
C586        F592   1.384       .  S
C593        C594   1.406       .  A
C593        C598   1.404       .  A
C593        H600   1.081   1_545  S
C594        C595   1.426       .  A
C595        C602   1.520       .  S
C595        C596   1.413       .  A
C596        C597   1.403       .  A
C596        H601   1.082       .  S
C597        C598   1.427       .  A
C598        C599   1.528       .  S
C599        F603   1.385   1_545  S
C599        F604   1.382   1_545  S
C599        F605   1.380       .  S
C602        F606   1.384       .  S
C602        F607   1.383       .  S
C602        F608   1.385       .  S
C609        C610   1.402       .  A
C609        C614   1.402       .  A
C609        H616   1.083       .  S
C610        C611   1.421       .  A
C611        C618   1.518       .  S
C611        C612   1.411       .  A
C612        C613   1.402       .  A
C612        H617   1.084       .  S
C613        C614   1.418       .  A
C614        C615   1.515       .  S
C615        F619   1.380       .  S
C615        F620   1.380       .  S
C615        F621   1.385       .  S
C618        F622   1.384       .  S
C618        F623   1.383       .  S
C618        F624   1.385       .  S
C625        C626   1.402       .  A
C625        C630   1.403   1_455  A
C625        H632   1.083       .  S
C626        C627   1.418   1_565  A
C627        C634   1.519       .  S
C627        C628   1.407   1_455  A
C628        C629   1.402   1_545  A
C628        H633   1.080       .  S
C629        C630   1.417       .  A
C630        C631   1.520       .  S
C631        F635   1.385       .  S
C631        F636   1.382       .  S
C631        F637   1.383       .  S
C634        F638   1.383       .  S
C634        F639   1.383       .  S
C634        F640   1.385       .  S
C641        C642   1.401       .  A
C641        C646   1.410   1_655  A
C641        H648   1.080       .  S
C642        C643   1.415       .  A
C643        C650   1.518       .  S
C643        C644   1.408   1_655  A
C644        C645   1.405       .  A
C644        H649   1.083       .  S
C645        C646   1.419       .  A
C646        C647   1.516       .  S
C647        F651   1.385   1_455  S
C647        F652   1.380       .  S
C647        F653   1.378       .  S
C650        F654   1.382       .  S
C650        F655   1.382       .  S
C650        F656   1.385       .  S
C657        C658   1.416       .  A
C657        C662   1.403       .  A
C657        H664   1.073       .  S
C658        C659   1.438       .  A
C659        C666   1.528       .  S
C659        C660   1.405       .  A
C660        C661   1.392       .  A
C660        H665   1.085   1_545  S
C661        C662   1.407       .  A
C662        C663   1.521       .  S
C663        F667   1.385       .  S
C663        F668   1.382       .  S
C663        F669   1.383       .  S
C666        F670   1.383   1_545  S
C666        F671   1.375       .  S
C666        F672   1.385   1_545  S
C673        C674   1.401       .  A
C673        C678   1.407       .  A
C673        H680   1.078       .  S
C674        C675   1.425       .  A
C675        C682   1.520       .  S
C675        C676   1.406       .  A
C676        C677   1.398       .  A
C676        H681   1.085       .  S
C677        C678   1.414       .  A
C678        C679   1.515       .  S
C679        F683   1.384       .  S
C679        F684   1.384       .  S
C679        F685   1.381       .  S
C682        F686   1.383       .  S
C682        F687   1.382       .  S
C682        F688   1.384       .  S
C689        C690   1.404       .  A
C689        C694   1.399   1_655  A
C689        H696   1.081       .  S
C690        C691   1.417       .  A
C691        C698   1.516       .  S
C691        C692   1.411   1_655  A
C692        C693   1.406       .  A
C692        H697   1.082       .  S
C693        C694   1.416       .  A
C694        C695   1.521       .  S
C695        F699   1.384       .  S
C695        F700   1.382       .  S
C695        F701   1.383       .  S
C698        F702   1.382       .  S
C698        F703   1.380       .  S
C698        F704   1.385       .  S
C705        C706   1.414       .  A
C705        C710   1.402       .  A
C705        H712   1.077       .  S
C706        C707   1.434       .  A
C707        C714   1.525       .  S
C707        C708   1.403       .  A
C708        C709   1.395       .  A
C708        H713   1.086       .  S
C709        C710   1.410       .  A
C710        C711   1.522       .  S
C711        F715   1.384       .  S
C711        F716   1.383       .  S
C711        F717   1.381       .  S
C714        F718   1.385       .  S
C714        F719   1.377       .  S
C714        F720   1.383       .  S
C721        C722   1.401       .  A
C721        C726   1.403       .  A
C721        H728   1.083       .  S
C722        C723   1.414       .  A
C723        C730   1.517       .  S
C723        C724   1.416       .  A
C724        C725   1.412       .  A
C724        H729   1.082       .  S
C725        C726   1.426       .  A
C726        C727   1.524       .  S
C727        F731   1.385       .  S
C727        F732   1.383       .  S
C727        F733   1.383       .  S
C730        F734   1.383       .  S
C730        F735   1.381       .  S
C730        F736   1.384       .  S
C737        C738   1.404       .  A
C737        C742   1.405       .  A
C737        H744   1.081       .  S
C738        C739   1.413       .  A
C739        C746   1.513       .  S
C739        C740   1.399   1_655  A
C740        C741   1.401       .  A
C740        H745   1.080       .  S
C741        C742   1.414   1_455  A
C742        C743   1.514   1_655  S
C743        F747   1.378       .  S
C743        F748   1.380       .  S
C743        F749   1.382   1_455  S
C746        F750   1.380       .  S
C746        F751   1.380       .  S
C746        F752   1.384       .  S
C753        C754   1.408       .  A
C753        C758   1.416       .  A
C753        H760   1.083       .  S
C754        C755   1.429       .  A
C755        C762   1.530       .  S
C755        C756   1.404       .  A
C756        C757   1.407       .  A
C756        H761   1.081       .  S
C757        C758   1.423       .  A
C758        C759   1.517       .  S
C759        F763   1.385       .  S
C759        F764   1.381       .  S
C759        F765   1.381       .  S
C762        F766   1.378       .  S
C762        F767   1.382       .  S
C762        F768   1.385       .  S
C769        C770   1.389       .  A
C769        C774   1.408       .  A
C769        H776   1.085       .  S
C770        C771   1.405       .  A
C771        C778   1.520       .  S
C771        C772   1.403       .  A
C772        C773   1.416       .  A
C772        H777   1.082       .  S
C773        C774   1.446       .  A
C774        C775   1.530       .  S
C775        F779   1.386       .  S
C775        F780   1.376       .  S
C775        F781   1.375       .  S
C778        F782   1.383       .  S
C778        F783   1.382       .  S
C778        F784   1.385       .  S
C785        C786   1.403       .  A
C785        C790   1.405       .  A
C785        H792   1.084       .  S
C786        C787   1.417       .  A
C787        C794   1.516       .  S
C787        C788   1.406       .  A
C788        C789   1.403   1_655  A
C788        H793   1.084   1_655  S
C789        C790   1.419   1_455  A
C790        C791   1.520   1_655  S
C791        F795   1.385   1_455  S
C791        F796   1.381       .  S
C791        F797   1.381       .  S
C794        F798   1.380       .  S
C794        F799   1.380       .  S
C794        F800   1.384       .  S
C801        C802   1.399       .  A
C801        C806   1.405       .  A
C801        H808   1.076       .  S
C802        C803   1.416       .  A
C803        C810   1.513       .  S
C803        C804   1.408       .  A
C804        C805   1.404       .  A
C804        H809   1.082       .  S
C805        C806   1.418       .  A
C806        C807   1.510       .  S
C807        F811   1.384       .  S
C807        F812   1.377       .  S
C807        F813   1.380       .  S
C810        F814   1.379       .  S
C810        F815   1.381       .  S
C810        F816   1.385       .  S
C817        C818   1.416       .  A
C817        C822   1.401       .  A
C817        H824   1.080       .  S
C818        C819   1.427       .  A
C819        C826   1.517       .  S
C819        C820   1.402       .  A
C820        C821   1.398       .  A
C820        H825   1.085       .  S
C821        C822   1.408       .  A
C822        C823   1.520       .  S
C823        F827   1.385       .  S
C823        F828   1.383       .  S
C823        F829   1.382       .  S
C826        F830   1.375       .  S
C826        F831   1.382       .  S
C826        F832   1.386       .  S
C833        C834   1.398       .  A
C833        C838   1.390       .  A
C833        H840   1.086       .  S
C834        C835   1.417       .  A
C835        C842   1.515       .  S
C835        C836   1.414       .  A
C836        C837   1.406       .  A
C836        H841   1.083       .  S
C837        C838   1.420       .  A
C838        C839   1.517       .  S
C839        F843   1.382       .  S
C839        F844   1.383       .  S
C839        F845   1.373       .  S
C842        F846   1.383       .  S
C842        F847   1.382       .  S
C842        F848   1.385       .  S
C849        C850   1.394       .  A
C849        C854   1.401       .  A
C849        H856   1.085       .  S
C850        C851   1.412       .  A
C851        C858   1.516       .  S
C851        C852   1.403       .  A
C852        C853   1.404       .  A
C852        H857   1.080       .  S
C853        C854   1.426       .  A
C854        C855   1.516       .  S
C855        F859   1.385       .  S
C855        F860   1.376       .  S
C855        F861   1.383       .  S
C858        F862   1.382       .  S
C858        F863   1.382       .  S
C858        F864   1.382       .  S
C865        C866   1.398       .  A
C865        C870   1.408       .  A
C865        H872   1.085       .  S
C866        C867   1.414       .  A
C867        C874   1.519       .  S
C867        C868   1.408       .  A
C868        C869   1.410       .  A
C868        H873   1.077       .  S
C869        C870   1.431       .  A
C870        C871   1.520       .  S
C871        F875   1.384       .  S
C871        F876   1.384       .  S
C871        F877   1.383       .  S
C874        F878   1.382       .  S
C874        F879   1.382       .  S
C874        F880   1.382       .  S
C881        C882   1.405       .  A
C881        C886   1.400       .  A
C881        H888   1.084       .  S
C882        C883   1.425       .  A
C883        C890   1.519       .  S
C883        C884   1.414       .  A
C884        C885   1.404       .  A
C884        H889   1.083       .  S
C885        C886   1.418       .  A
C886        C887   1.522       .  S
C887        F891   1.384       .  S
C887        F892   1.377       .  S
C887        F893   1.383       .  S
C890        F894   1.383       .  S
C890        F895   1.384       .  S
C890        F896   1.385       .  S
C897        C898   1.404       .  A
C897        C902   1.405       .  A
C897        H904   1.081       .  S
C898        C899   1.419       .  A
C899        C906   1.520       .  S
C899        C900   1.406       .  A
C900        C901   1.404   1_655  A
C900        H905   1.083   1_655  S
C901        C902   1.419   1_455  A
C902        C903   1.521   1_655  S
C903        F907   1.384       .  S
C903        F908   1.385   1_455  S
C903        F909   1.382       .  S
C906        F910   1.384       .  S
C906        F911   1.383       .  S
C906        F912   1.385       .  S
C913        C914   1.398       .  A
C913        C918   1.409       .  A
C913        H920   1.084       .  S
C914        C915   1.409       .  A
C915        C922   1.521       .  S
C915        C916   1.404       .  A
C916        C917   1.415       .  A
C916        H921   1.077       .  S
C917        C918   1.437       .  A
C918        C919   1.527       .  S
C919        F923   1.386       .  S
C919        F924   1.382       .  S
C919        F925   1.379       .  S
C922        F926   1.381       .  S
C922        F927   1.384       .  S
C922        F928   1.384       .  S
C929        C930   1.414       .  A
C929        C934   1.407       .  A
C929        H936   1.079       .  S
C930        C931   1.432       .  A
C931        C938   1.524       .  S
C931        C932   1.407       .  A
C932        C933   1.400       .  A
C932        H937   1.085       .  S
C933        C934   1.412       .  A
C934        C935   1.520       .  S
C935        F939   1.385       .  S
C935        F940   1.384       .  S
C935        F941   1.381       .  S
C938        F942   1.385       .  S
C938        F943   1.379       .  S
C938        F944   1.383       .  S
C945        C946   1.403       .  A
C945        C950   1.410       .  A
C945        H952   1.080       .  S
C946        C947   1.420       .  A
C947        C954   1.517       .  S
C947        C948   1.407       .  A
C948        C949   1.405       .  A
C948        H953   1.085       .  S
C949        C950   1.420       .  A
C950        C951   1.516       .  S
C951        F955   1.384       .  S
C951        F956   1.379       .  S
C951        F957   1.380       .  S
C954        F958   1.378       .  S
C954        F959   1.383       .  S
C954        F960   1.384       .  S
C961        C962   1.402       .  A
C961        C966   1.415       .  A
C961        H968   1.085       .  S
C962        C963   1.414       .  A
C963        C970   1.522       .  S
C963        C964   1.405       .  A
C964        C965   1.415       .  A
C964        H969   1.076       .  S
C965        C966   1.435       .  A
C966        C967   1.524       .  S
C967        F971   1.383       .  S
C967        F972   1.377       .  S
C967        F973   1.385       .  S
C970        F974   1.383   1_545  S
C970        F975   1.380       .  S
C970        F976   1.385       .  S
C977        C978   1.402       .  A
C977        C982   1.406       .  A
C977        H984   1.083       .  S
C978        C979   1.410       .  A
C979        C986   1.513       .  S
C979        C980   1.407       .  A
C980        C981   1.403       .  A
C980        H985   1.077       .  S
C981        C982   1.415       .  A
C982        C983   1.512       .  S
C983        F987   1.384       .  S
C983        F988   1.381       .  S
C983        F989   1.382       .  S
C986        F990   1.381       .  S
C986        F991   1.383       .  S
C986        F992   1.384       .  S
C993        C994   1.404       .  A
C993        C998   1.407       .  A
C993       H1000   1.085       .  S
C994        C995   1.415       .  A
C995       C1002   1.519       .  S
C995        C996   1.408       .  A
C996        C997   1.412       .  A
C996       H1001   1.082       .  S
C997        C998   1.426       .  A
C998        C999   1.521       .  S
C999       F1003   1.385       .  S
C999       F1004   1.382       .  S
C999       F1005   1.383       .  S
C1002      F1006   1.384       .  S
C1002      F1007   1.380       .  S
C1002      F1008   1.385       .  S
C1009      C1010   1.407       .  A
C1009      C1014   1.409       .  A
C1009      H1016   1.083       .  S
C1010      C1011   1.419       .  A
C1011      C1018   1.522   1_545  S
C1011      C1012   1.401       .  A
C1012      C1013   1.399       .  A
C1012      H1017   1.079       .  S
C1013      C1014   1.413       .  A
C1014      C1015   1.513       .  S
C1015      F1019   1.385       .  S
C1015      F1020   1.382       .  S
C1015      F1021   1.382       .  S
C1018      F1022   1.382       .  S
C1018      F1023   1.384       .  S
C1018      F1024   1.384       .  S
C1025      C1026   1.402       .  A
C1025      C1030   1.412       .  A
C1025      H1032   1.078       .  S
C1026      C1027   1.414       .  A
C1027      C1034   1.512       .  S
C1027      C1028   1.400       .  A
C1028      C1029   1.403       .  A
C1028      H1033   1.082       .  S
C1029      C1030   1.421       .  A
C1030      C1031   1.518       .  S
C1031      F1035   1.385       .  S
C1031      F1036   1.383       .  S
C1031      F1037   1.383       .  S
C1034      F1038   1.379       .  S
C1034      F1039   1.381       .  S
C1034      F1040   1.385       .  S
C1041      C1042   1.402   1_545  A
C1041      C1046   1.405       .  A
C1041      H1048   1.083       .  S
C1042      C1043   1.417       .  A
C1043      C1050   1.520       .  S
C1043      C1044   1.405       .  A
C1044      C1045   1.403       .  A
C1044      H1049   1.083       .  S
C1045      C1046   1.420   1_565  A
C1046      C1047   1.521       .  S
C1047      F1051   1.385       .  S
C1047      F1052   1.383   1_556  S
C1047      F1053   1.382       .  S
C1050      F1054   1.382       .  S
C1050      F1055   1.384       .  S
C1050      F1056   1.384       .  S
C1057      C1058   1.399       .  A
C1057      C1062   1.408       .  A
C1057      H1064   1.082       .  S
C1058      C1059   1.418       .  A
C1059      C1066   1.519       .  S
C1059      C1060   1.409       .  A
C1060      C1061   1.404       .  A
C1060      H1065   1.083       .  S
C1061      C1062   1.420       .  A
C1062      C1063   1.509       .  S
C1063      F1067   1.385       .  S
C1063      F1068   1.380       .  S
C1063      F1069   1.380       .  S
C1066      F1070   1.384       .  S
C1066      F1071   1.380       .  S
C1066      F1072   1.380       .  S
C1073      C1074   1.413       .  A
C1073      C1078   1.405       .  A
C1073      H1080   1.080       .  S
C1074      C1075   1.428       .  A
C1075      C1082   1.519       .  S
C1075      C1076   1.400       .  A
C1076      C1077   1.399       .  A
C1076      H1081   1.086       .  S
C1077      C1078   1.418       .  A
C1078      C1079   1.522   1_545  S
C1079      F1083   1.385       .  S
C1079      F1084   1.383       .  S
C1079      F1085   1.381   1_565  S
C1082      F1086   1.376       .  S
C1082      F1087   1.380       .  S
C1082      F1088   1.386       .  S
C1089      C1090   1.400       .  A
C1089      C1094   1.405       .  A
C1089      H1096   1.084       .  S
C1090      C1091   1.412       .  A
C1091      C1098   1.514       .  S
C1091      C1092   1.401       .  A
C1092      C1093   1.402       .  A
C1092      H1097   1.083       .  S
C1093      C1094   1.421       .  A
C1094      C1095   1.520   1_545  S
C1095      F1099   1.386       .  S
C1095      F1100   1.382       .  S
C1095      F1101   1.382       .  S
C1098      F1102   1.381       .  S
C1098      F1103   1.380       .  S
C1098      F1104   1.385       .  S
C1105      C1106   1.413       .  A
C1105      C1110   1.404       .  A
C1105      H1112   1.082       .  S
C1106      C1107   1.431       .  A
C1107      C1114   1.522       .  S
C1107      C1108   1.408       .  A
C1108      C1109   1.404       .  A
C1108      H1113   1.079       .  S
C1109      C1110   1.422       .  A
C1110      C1111   1.525       .  S
C1111      F1115   1.385       .  S
C1111      F1116   1.383       .  S
C1111      F1117   1.375       .  S
C1114      F1118   1.373       .  S
C1114      F1119   1.382       .  S
C1114      F1120   1.386       .  S
C1121      C1122   1.414       .  A
C1121      C1126   1.402       .  A
C1121      H1128   1.080       .  S
C1122      C1123   1.430       .  A
C1123      C1130   1.521       .  S
C1123      C1124   1.405       .  A
C1124      C1125   1.397       .  A
C1124      H1129   1.085       .  S
C1125      C1126   1.407       .  A
C1126      C1127   1.519       .  S
C1127      F1131   1.384       .  S
C1127      F1132   1.383       .  S
C1127      F1133   1.383       .  S
C1130      F1134   1.378       .  S
C1130      F1135   1.385       .  S
C1130      F1136   1.383       .  S
C1137      C1138   1.401       .  A
C1137      C1142   1.409       .  A
C1137      H1144   1.083       .  S
C1138      C1139   1.420       .  A
C1139      C1146   1.519       .  S
C1139      C1140   1.403       .  A
C1140      C1141   1.400       .  A
C1140      H1145   1.083       .  S
C1141      C1142   1.417       .  A
C1142      C1143   1.517       .  S
C1143      F1147   1.384       .  S
C1143      F1148   1.384       .  S
C1143      F1149   1.382       .  S
C1146      F1150   1.382       .  S
C1146      F1151   1.379       .  S
C1146      F1152   1.385       .  S
C1153      C1154   1.401       .  A
C1153      C1158   1.405       .  A
C1153      H1160   1.084       .  S
C1154      C1155   1.422       .  A
C1155      C1162   1.525       .  S
C1155      C1156   1.400       .  A
C1156      C1157   1.402       .  A
C1156      H1161   1.081       .  S
C1157      C1158   1.417       .  A
C1158      C1159   1.512       .  S
C1159      F1163   1.381       .  S
C1159      F1164   1.379       .  S
C1159      F1165   1.384       .  S
C1162      F1166   1.385       .  S
C1162      F1167   1.382       .  S
C1162      F1168   1.381       .  S
C1169      C1170   1.405       .  A
C1169      C1174   1.399       .  A
C1169      H1176   1.084       .  S
C1170      C1171   1.429       .  A
C1171      C1178   1.517       .  S
C1171      C1172   1.408       .  A
C1172      C1173   1.402       .  A
C1172      H1177   1.079       .  S
C1173      C1174   1.419       .  A
C1174      C1175   1.512       .  S
C1175      F1179   1.385       .  S
C1175      F1180   1.382       .  S
C1175      F1181   1.373       .  S
C1178      F1182   1.385       .  S
C1178      F1183   1.372       .  S
C1178      F1184   1.381       .  S
C1185      C1186   1.411       .  A
C1185      C1190   1.405       .  A
C1185      H1192   1.080       .  S
C1186      C1187   1.428       .  A
C1187      C1194   1.522       .  S
C1187      C1188   1.407       .  A
C1188      C1189   1.403       .  A
C1188      H1193   1.084       .  S
C1189      C1190   1.416       .  A
C1190      C1191   1.520       .  S
C1191      F1195   1.385       .  S
C1191      F1196   1.380       .  S
C1191      F1197   1.383       .  S
C1194      F1198   1.383       .  S
C1194      F1199   1.381       .  S
C1194      F1200   1.385       .  S
C1201      C1202   1.403       .  A
C1201      C1206   1.410       .  A
C1201      H1208   1.083       .  S
C1202      C1203   1.424       .  A
C1203      C1210   1.524       .  S
C1203      C1204   1.406       .  A
C1204      C1205   1.406       .  A
C1204      H1209   1.084       .  S
C1205      C1206   1.421       .  A
C1206      C1207   1.511       .  S
C1207      F1211   1.385       .  S
C1207      F1212   1.379       .  S
C1207      F1213   1.375       .  S
C1210      F1214   1.378       .  S
C1210      F1215   1.383       .  S
C1210      F1216   1.384       .  S
C1217      C1218   1.397       .  A
C1217      C1222   1.399       .  A
C1217      H1224   1.078       .  S
C1218      C1219   1.421       .  A
C1219      C1226   1.514       .  S
C1219      C1220   1.414       .  A
C1220      C1221   1.406       .  A
C1220      H1225   1.085       .  S
C1221      C1222   1.423       .  A
C1222      C1223   1.519       .  S
C1223      F1227   1.382       .  S
C1223      F1228   1.372       .  S
C1223      F1229   1.383       .  S
C1226      F1230   1.383       .  S
C1226      F1231   1.378       .  S
C1226      F1232   1.384       .  S
C1233      C1234   1.412       .  A
C1233      C1238   1.409       .  A
C1233      H1240   1.080       .  S
C1234      C1235   1.428       .  A
C1235      C1242   1.521       .  S
C1235      C1236   1.405       .  A
C1236      C1237   1.402       .  A
C1236      H1241   1.085       .  S
C1237      C1238   1.417       .  A
C1238      C1239   1.520       .  S
C1239      F1243   1.385       .  S
C1239      F1244   1.384       .  S
C1239      F1245   1.381       .  S
C1242      F1246   1.379       .  S
C1242      F1247   1.383       .  S
C1242      F1248   1.385       .  S
C1249      C1250   1.408       .  A
C1249      C1254   1.411       .  A
C1249      H1256   1.083       .  S
C1250      C1251   1.426       .  A
C1251      C1258   1.520       .  S
C1251      C1252   1.405       .  A
C1252      C1253   1.396       .  A
C1252      H1257   1.084       .  S
C1253      C1254   1.411       .  A
C1254      C1255   1.516       .  S
C1255      F1259   1.383       .  S
C1255      F1260   1.383       .  S
C1255      F1261   1.384       .  S
C1258      F1262   1.382       .  S
C1258      F1263   1.382       .  S
C1258      F1264   1.385       .  S
C1265      C1266   1.403       .  A
C1265      C1270   1.411       .  A
C1265      H1272   1.083       .  S
C1266      C1267   1.412       .  A
C1267      C1274   1.511       .  S
C1267      C1268   1.405       .  A
C1268      C1269   1.404       .  A
C1268      H1273   1.083       .  S
C1269      C1270   1.422       .  A
C1270      C1271   1.520       .  S
C1271      F1275   1.385       .  S
C1271      F1276   1.383       .  S
C1271      F1277   1.382       .  S
C1274      F1278   1.381       .  S
C1274      F1279   1.382       .  S
C1274      F1280   1.384       .  S
C1281      C1282   1.398       .  A
C1281      C1286   1.406       .  A
C1281      H1288   1.084       .  S
C1282      C1283   1.414       .  A
C1283      C1290   1.514       .  S
C1283      C1284   1.406       .  A
C1284      C1285   1.405       .  A
C1284      H1289   1.078       .  S
C1285      C1286   1.423       .  A
C1286      C1287   1.516       .  S
C1287      F1291   1.384       .  S
C1287      F1292   1.383       .  S
C1287      F1293   1.383       .  S
C1290      F1294   1.383       .  S
C1290      F1295   1.381       .  S
C1290      F1296   1.382       .  S
C1297      C1298   1.397       .  A
C1297      C1302   1.398       .  A
C1297      H1304   1.081       .  S
C1298      C1299   1.416       .  A
C1299      C1306   1.510       .  S
C1299      C1300   1.415       .  A
C1300      C1301   1.406       .  A
C1300      H1305   1.083       .  S
C1301      C1302   1.420       .  A
C1302      C1303   1.521       .  S
C1303      F1307   1.383       .  S
C1303      F1308   1.382       .  S
C1303      F1309   1.381       .  S
C1306      F1310   1.382       .  S
C1306      F1311   1.383       .  S
C1306      F1312   1.384       .  S
C1313      C1314   1.407       .  A
C1313      C1318   1.399       .  A
C1313      H1320   1.081   1_556  S
C1314      C1315   1.422       .  A
C1315      C1322   1.522       .  S
C1315      C1316   1.407       .  A
C1316      C1317   1.409       .  A
C1316      H1321   1.081       .  S
C1317      C1318   1.423       .  A
C1318      C1319   1.526   1_556  S
C1319      F1323   1.385       .  S
C1319      F1324   1.384   1_554  S
C1319      F1325   1.382       .  S
C1322      F1326   1.385       .  S
C1322      F1327   1.379       .  S
C1322      F1328   1.382       .  S
