geometry optimzed in LAMMPS
_audit_creation_date              2020-11-30 
_audit_creation_method            'lammps2cif' 
_symmetry_space_group_name_H-M    'P1' 
_symmetry_Int_Tables_number       1 
_symmetry_cell_setting            triclinic 
loop_ 
_symmetry_equiv_pos_as_xyz 
  x,y,z 
_cell_length_a                    43.03276715569557 
_cell_length_b                    28.274109778997243 
_cell_length_c                    24.802623276719576 
_cell_angle_alpha                 90.15308269369369 
_cell_angle_beta                  90.24325864854151 
_cell_angle_gamma                 90.46728594210855 
loop_ 
_atom_site_label 
_atom_site_type_symbol 
_atom_site_fract_x 
_atom_site_fract_y 
_atom_site_fract_z 
_atom_site_charge 
O1          O  0.57228808  0.53988855  0.01566804    -0.73290
O2          O  0.66488636  0.53563251  0.02142737    -0.74270
O3          O  0.62021428  0.57799145  0.95176491    -0.62890
O4          O  0.61551601  0.49883014  0.08487923    -0.71300
O5          O  0.61330929  0.43391150  0.03496370    -0.70860
O6          O  0.61875447  0.51403379  0.90037006    -0.62110
O7          O  0.66397814  0.47249567  0.96932455    -0.74620
O8          O  0.57150179  0.47547642  0.96430611    -0.73400
Cu9        Cu  0.61861786  0.54027362  0.02004907     1.04560
Cu10       Cu  0.61734871  0.47161976  0.96553294     1.04330
C11         C  0.55731526  0.50755578  0.99033899     0.92900
C12         C  0.67942097  0.50392771  0.99527912     0.92040
C13         C  0.61812697  0.55905762  0.90511391     0.84190
C14         C  0.61025324  0.45449967  0.08071745     0.90460
O15         O  0.31873751  0.53603172  0.02980709    -0.73290
O16         O  0.41058398  0.53356445  0.02579173    -0.74270
O17         O  0.36458452  0.56819005  0.95748405    -0.62890
O18         O  0.36635869  0.50118135  0.09842654    -0.71300
O19         O  0.36721998  0.43192346  0.05596287    -0.70860
O20         O  0.36099771  0.50104781  0.91287904    -0.62110
O21         O  0.40925730  0.46696505  0.97827234    -0.74620
O22         O  0.31725180  0.46549807  0.99111128    -0.73400
Cu23       Cu  0.36486839  0.53699383  0.02932583     1.04560
Cu24       Cu  0.36331778  0.46379465  0.98301917     1.04330
C25         C  0.30326273  0.50079118  0.01168981     0.92900
C26         C  0.42444214  0.50063003  0.00059289     0.92040
C27         C  0.36370257  0.54616878  0.91260451     0.84190
C28         C  0.36907070  0.45629039  0.09941472     0.90460
C29         C  0.41713171  0.64065195  0.71857801    -0.02840
C30         C  0.41475702  0.36430155  0.29381749    -0.02840
C31         C  0.35475133  0.47995799  0.46035014     0.02780
C32         C  0.37231276  0.50135520  0.50190829    -0.13370
C33         C  0.35791184  0.52949303  0.54100844     0.00280
C34         C  0.32543010  0.53335124  0.54060108    -0.11900
C35         C  0.30787901  0.51227395  0.49930034     0.02770
C36         C  0.32265135  0.48713100  0.45834125    -0.11320
H37         H  0.39722242  0.49640597  0.50373837     0.08370
H38         H  0.31389509  0.55363678  0.57168554     0.05900
H39         H  0.30891139  0.47122140  0.42623442     0.05740
C40         C  0.41302054  0.85853109  0.71235163    -0.02840
C41         C  0.40907682  0.14221468  0.28532578    -0.02840
C42         C  0.35667774  0.98319469  0.54769182     0.02780
C43         C  0.37220052  0.01111651  0.50953128    -0.13370
C44         C  0.35523315  0.03734996  0.47178934     0.00280
C45         C  0.32260964  0.03652711  0.47339977    -0.11900
C46         C  0.30674444  0.00915974  0.51162828     0.02770
C47         C  0.32395274  0.98252565  0.54879857    -0.11320
H48         H  0.39737159  0.01111774  0.50798812     0.08370
H49         H  0.30948776  0.05646818  0.44388178     0.05900
H50         H  0.31193103  0.96039003  0.57773039     0.05740
O51         O  0.56485957  0.96851133  0.01746204    -0.73290
O52         O  0.65735346  0.96390070  0.02913600    -0.74270
O53         O  0.60785699  0.00584472  0.08996040    -0.62890
O54         O  0.61139180  0.92547231  0.95591067    -0.71300
O55         O  0.61054503  0.99124613  0.90720934    -0.70860
O56         O  0.61622466  0.07048833  0.04203122    -0.62110
O57         O  0.66054223  0.02467152  0.97354899    -0.74620
O58         O  0.56803704  0.03748777  0.97602581    -0.73400
Cu59       Cu  0.61065483  0.96362623  0.02484319     1.04560
Cu60       Cu  0.61434277  0.03315441  0.97282277     1.04330
C61         C  0.55171108  0.00467024  0.99721541     0.92900
C62         C  0.67381264  0.99324872  0.00225305     0.92040
C63         C  0.60938954  0.05091845  0.08687945     0.84190
C64         C  0.60871688  0.94618069  0.91044465     0.90460
O65         O  0.30938948  0.97633453  0.02206101    -0.73290
O66         O  0.40224400  0.97149261  0.01567723    -0.74270
O67         O  0.35961505  0.01400308  0.08563201    -0.62890
O68         O  0.35458962  0.93358439  0.95206138    -0.71300
O69         O  0.36082225  0.99813501  0.90298412    -0.70860
O70         O  0.35488203  0.07882230  0.03664036    -0.62110
O71         O  0.40301850  0.04074786  0.97438114    -0.74620
O72         O  0.30995491  0.03589219  0.96479805    -0.73400
Cu73       Cu  0.35608569  0.97163618  0.02064063     1.04560
Cu74       Cu  0.35681132  0.04066857  0.96783346     1.04330
C75         C  0.29466073  0.00629421  0.99340763     0.92900
C76         C  0.41738200  0.00593213  0.99520495     0.92040
C77         C  0.35928953  0.05910757  0.08233531     0.84190
C78         C  0.36042497  0.95304489  0.90674308     0.90460
C79         C  0.55989632  0.85518919  0.71146500    -0.02840
C80         C  0.55191069  0.14241947  0.27905269    -0.02840
C81         C  0.60548907  0.97631513  0.53459635     0.02780
C82         C  0.58995908  0.00393468  0.49655820    -0.13370
C83         C  0.60690590  0.03169855  0.46002071     0.00280
C84         C  0.63953926  0.03207370  0.46186719    -0.11900
C85         C  0.65553323  0.00573366  0.50081467     0.02770
C86         C  0.63826539  0.97788488  0.53702303    -0.11320
H87         H  0.56478412  0.00404331  0.49549800     0.08370
H88         H  0.65246567  0.05318824  0.43314179     0.05900
H89         H  0.65039972  0.95751953  0.56750231     0.05740
C90         C  0.56101093  0.64121320  0.71127025    -0.02840
C91         C  0.55795114  0.35969231  0.27782653    -0.02840
C92         C  0.61608751  0.47405387  0.45375075     0.02780
C93         C  0.59800265  0.49896105  0.49130565    -0.13370
C94         C  0.61254369  0.52454849  0.53337222     0.00280
C95         C  0.64504503  0.52524645  0.53738044    -0.11900
C96         C  0.66292070  0.50022561  0.50016984     0.02770
C97         C  0.64846480  0.47459117  0.45884601    -0.11320
H98         H  0.57288103  0.49797571  0.48823751     0.08370
H99         H  0.65637396  0.54496669  0.56956393     0.05900
H100        H  0.66250319  0.45476991  0.43061296     0.05740
O101        O  0.06828972  0.47111133  0.52147720    -0.73290
O102        O  0.15973456  0.47177734  0.50448819    -0.74270
O103        O  0.11791965  0.49630586  0.58834284    -0.62890
O104        O  0.10843571  0.44699168  0.43678605    -0.71300
O105        O  0.11151428  0.51967485  0.40386647    -0.70860
O106        O  0.11012222  0.56790236  0.55589788    -0.62110
O107        O  0.15825571  0.54721871  0.48170603    -0.74620
O108        O  0.06559704  0.54021096  0.47998511    -0.73400
Cu109      Cu  0.11390111  0.46887936  0.51357874     1.04560
Cu110      Cu  0.11160442  0.54636936  0.47913672     1.04330
C111        C  0.05235166  0.50518962  0.50293206     0.92900
C112        C  0.17381963  0.51035186  0.49348112     0.92040
C113        C  0.11305756  0.54025839  0.59624432     0.84190
C114        C  0.10750167  0.47532162  0.39663508     0.90460
O115        O  0.81328449  0.53094268  0.48616750    -0.73290
O116        O  0.90525126  0.53307912  0.49428089    -0.74270
O117        O  0.86271667  0.49526722  0.42103715    -0.62890
O118        O  0.85806188  0.56821167  0.55855426    -0.71300
O119        O  0.85521209  0.50266946  0.60599598    -0.70860
O120        O  0.86407046  0.42819982  0.46728652    -0.62110
O121        O  0.90459163  0.46841882  0.54462221    -0.74620
O122        O  0.81229342  0.46300082  0.52866597    -0.73400
Cu123      Cu  0.85951268  0.53406909  0.48842243     1.04560
Cu124      Cu  0.85863317  0.46311533  0.53821054     1.04330
C125        C  0.79773329  0.49678879  0.50612864     0.92900
C126        C  0.91951608  0.50135665  0.52080606     0.92040
C127        C  0.86676936  0.45059719  0.42278684     0.84190
C128        C  0.85754540  0.54772046  0.60427425     0.90460
C129        C  0.91881949  0.64703470  0.78802676    -0.02840
C130        C  0.91107466  0.35953302  0.22101007    -0.02840
C131        C  0.86568094  0.53221870  0.96798439     0.02780
C132        C  0.83312117  0.53211391  0.96274119    -0.13370
C133        C  0.81462730  0.50392630  0.99642575     0.00280
C134        C  0.82885251  0.47505193  0.03479037    -0.11900
C135        C  0.86128395  0.47345467  0.03954081     0.02770
C136        C  0.87972489  0.50266535  0.00657061    -0.11320
H137        H  0.82215581  0.55429713  0.93270032     0.08370
H138        H  0.81453519  0.45393954  0.06155593     0.05900
H139        H  0.90478752  0.50252124  0.01100540     0.05740
C140        C  0.91306250  0.86479729  0.77580072    -0.02840
C141        C  0.91333451  0.14188809  0.20585807    -0.02840
C142        C  0.85888684  0.01642748  0.03973758     0.02780
C143        C  0.82641482  0.01366063  0.04390127    -0.13370
C144        C  0.80898791  0.98629903  0.00740385     0.00280
C145        C  0.82468481  0.95948431  0.96868452    -0.11900
C146        C  0.85728339  0.96173417  0.96418912     0.02770
C147        C  0.87433174  0.99069806  0.99970685    -0.11320
H148        H  0.81464738  0.03400731  0.07467274     0.08370
H149        H  0.81136493  0.93828757  0.94019841     0.05900
H150        H  0.89933323  0.99380456  0.99575469     0.05740
O151        O  0.15645750  0.97261935  0.48331211    -0.73290
O152        O  0.06307726  0.97282162  0.48039798    -0.74270
O153        O  0.10960299  0.00587522  0.40929241    -0.62890
O154        O  0.10782341  0.94062956  0.55235103    -0.71300
O155        O  0.11068162  0.00929644  0.59425611    -0.70860
O156        O  0.10746971  0.07460127  0.45129151    -0.62110
O157        O  0.06344117  0.04113994  0.52420229    -0.74620
O158        O  0.15660629  0.04353192  0.52110575    -0.73400
Cu159      Cu  0.10954713  0.97062611  0.47978666     1.04560
Cu160      Cu  0.10984553  0.04454045  0.52408276     1.04330
C161        C  0.17143828  0.00791312  0.50305350     0.92900
C162        C  0.04848677  0.00681833  0.50252671     0.92040
C163        C  0.10655520  0.05074054  0.40752923     0.84190
C164        C  0.10779897  0.96438533  0.59615144     0.90460
O165        O  0.80649066  0.04784838  0.52263725    -0.73290
O166        O  0.90006383  0.04938154  0.52205695    -0.74270
O167        O  0.85471095  0.08676650  0.45312211    -0.62890
O168        O  0.85439894  0.01272623  0.59085809    -0.71300
O169        O  0.85356372  0.94623301  0.54497752    -0.70860
O170        O  0.85587506  0.01948067  0.40692166    -0.62110
O171        O  0.89929523  0.98107268  0.47814958    -0.74620
O172        O  0.80673114  0.98296084  0.47333465    -0.73400
Cu173      Cu  0.85350770  0.05158881  0.52366706     1.04560
Cu174      Cu  0.85340429  0.98024410  0.47415582     1.04330
C175        C  0.79155614  0.01461994  0.49853062     0.92900
C176        C  0.91437734  0.01476574  0.50051663     0.92040
C177        C  0.85830815  0.06456132  0.40868883     0.84190
C178        C  0.85626445  0.96779666  0.59009507     0.90460
C179        C  0.06349766  0.63709396  0.78985626    -0.02840
C180        C  0.05606468  0.36424410  0.21132217    -0.02840
C181        C  0.12158521  0.52740823  0.97230484     0.02780
C182        C  0.15358648  0.53420891  0.98214376    -0.13370
C183        C  0.16967957  0.50453460  0.01753601     0.00280
C184        C  0.15356784  0.47195876  0.04893754    -0.11900
C185        C  0.12162542  0.46684150  0.04257859     0.02770
C186        C  0.10585270  0.49259028  0.00256213    -0.11320
H187        H  0.16649740  0.56088057  0.96012557     0.08370
H188        H  0.16592139  0.45021626  0.07778558     0.05900
H189        H  0.08143283  0.48538279  0.99552785     0.05740
C190        C  0.05750131  0.85843153  0.78307137    -0.02840
C191        C  0.05788529  0.15174966  0.21218629    -0.02840
C192        C  0.11024878  0.04067761  0.03163361     0.02780
C193        C  0.09303641  0.01279895  0.99492633    -0.13370
C194        C  0.10845709  0.98193066  0.95961776     0.00280
C195        C  0.14125374  0.97972473  0.96163335    -0.11900
C196        C  0.15871415  0.00898454  0.99613451     0.02770
C197        C  0.14292039  0.03914269  0.03117355    -0.11320
H198        H  0.06791162  0.01474946  0.99439177     0.08370
H199        H  0.15339281  0.95599267  0.93471059     0.05900
H200        H  0.15611555  0.06075250  0.05944739     0.05740
C201        C  0.09701689  0.09042982  0.16876868    -0.02200
C202        C  0.07443358  0.12733642  0.16211971     0.07480
C203        C  0.06565513  0.13676600  0.10692961    -0.02310
C204        C  0.07778991  0.10938723  0.06381783    -0.02310
C205        C  0.09501907  0.06846968  0.07471599     0.07620
C206        C  0.10199276  0.05725655  0.12811280    -0.02510
Br207      Br  0.12031267  0.99689690  0.14608474    -0.01060
Br208      Br  0.13243505  0.09355140  0.21661535    -0.01130
Br209      Br  0.07074406  0.12731602  0.98968676    -0.01090
Br210      Br  0.03726877  0.18579819  0.08713766    -0.01070
C211        C  0.07001468  0.91715008  0.93063859    -0.02200
C212        C  0.09167706  0.95311367  0.91783226     0.07480
C213        C  0.10339618  0.95446219  0.86577585    -0.02310
C214        C  0.09918726  0.91565498  0.83197704    -0.02310
C215        C  0.07193349  0.88518049  0.83620778     0.07620
C216        C  0.05973943  0.88386877  0.89044563    -0.02510
Br217      Br  0.03931194  0.82919726  0.91944859    -0.01060
Br218      Br  0.05623225  0.91174597  0.00460376    -0.01130
Br219      Br  0.13670329  0.90200696  0.79198999    -0.01090
Br220      Br  0.12719895  0.00862494  0.84070522    -0.01070
C221        C  0.08798874  0.28463979  0.18940624    -0.02200
C222        C  0.06540415  0.30983849  0.22027353     0.07480
C223        C  0.05422845  0.28260225  0.26500826    -0.02310
C224        C  0.05329771  0.23254658  0.26334130    -0.02310
C225        C  0.06535276  0.20699561  0.21773943     0.07620
C226        C  0.08625771  0.23424011  0.18435325    -0.02510
Br227      Br  0.11881912  0.20598666  0.14088828    -0.01060
Br228      Br  0.12662792  0.31561703  0.16485224    -0.01130
Br229      Br  0.03407939  0.20088739  0.32548227    -0.01090
Br230      Br  0.05119845  0.30832622  0.33679408    -0.01070
C231        C  0.07745397  0.36307316  0.10375214    -0.02200
C232        C  0.06637721  0.38570721  0.15328755     0.07480
C233        C  0.06607706  0.43558274  0.14806363    -0.02310
C234        C  0.09211358  0.45731379  0.12677200    -0.02310
C235        C  0.10437168  0.43682084  0.08034859     0.07620
C236        C  0.09606296  0.39000362  0.06726743    -0.02510
Br237      Br  0.11163781  0.36358005  0.00065535    -0.01060
Br238      Br  0.06808821  0.29937714  0.07745401    -0.01130
Br239      Br  0.10078575  0.52196694  0.14640747    -0.01090
Br240      Br  0.03181594  0.46267724  0.10802527    -0.01070
C241        C  0.05519179  0.72033826  0.74233774    -0.02200
C242        C  0.06820828  0.69468512  0.78707867     0.07480
C243        C  0.08299654  0.72512230  0.82694576    -0.02310
C244        C  0.08264692  0.77613400  0.82295500    -0.02310
C245        C  0.06387629  0.80119372  0.78380764     0.07620
C246        C  0.05205778  0.77076839  0.74189753    -0.02510
Br247      Br  0.03459858  0.79649190  0.67704362    -0.01060
Br248      Br  0.04563689  0.68837588  0.67444501    -0.01130
Br249      Br  0.11467330  0.80757987  0.86560180    -0.01090
Br250      Br  0.10339746  0.70123223  0.89168448    -0.01070
C251        C  0.12110231  0.56403765  0.87997114    -0.02200
C252        C  0.10570877  0.55488412  0.92846675     0.07480
C253        C  0.07542311  0.57262433  0.93336223    -0.02310
C254        C  0.05984973  0.58973913  0.88706052    -0.02310
C255        C  0.07751400  0.61134646  0.84308510     0.07620
C256        C  0.11022739  0.59939755  0.84546922    -0.02510
Br257      Br  0.14405136  0.63095424  0.80981697    -0.01060
Br258      Br  0.15503891  0.52514480  0.85558330    -0.01130
Br259      Br  0.01715165  0.56629467  0.88600903    -0.01090
Br260      Br  0.05450727  0.57424194  0.00218604    -0.01070
C261        C  0.10562597  0.12348296  0.34828028    -0.02200
C262        C  0.09894231  0.07522383  0.35571046     0.07480
C263        C  0.08091038  0.05234418  0.31610606    -0.02310
C264        C  0.06259647  0.07901897  0.28057446    -0.02310
C265        C  0.07084590  0.12671517  0.26649721     0.07620
C266        C  0.09561212  0.14675154  0.30069611    -0.02510
Br267      Br  0.12311174  0.19907401  0.28268762    -0.01060
Br268      Br  0.13284134  0.15623679  0.39923865    -0.01130
Br269      Br  0.02263109  0.05058915  0.27141255    -0.01090
Br270      Br  0.08148413  0.98441596  0.30674510    -0.01070
C271        C  0.07150226  0.93672114  0.73164819    -0.02200
C272        C  0.07431779  0.88559623  0.73494243     0.07480
C273        C  0.09584896  0.86488484  0.69763811    -0.02310
C274        C  0.10701482  0.89051862  0.65278309    -0.02310
C275        C  0.10168085  0.93947691  0.64826198     0.07620
C276        C  0.08726443  0.96293667  0.69168510    -0.02510
Br277      Br  0.08891803  0.03122701  0.69855451    -0.01060
Br278      Br  0.04390641  0.97314228  0.77831494    -0.01130
Br279      Br  0.13361248  0.85892089  0.60083921    -0.01090
Br280      Br  0.11938277  0.80910680  0.71279128    -0.01070
C281        C  0.99714810  0.99366331  0.45607471    -0.02200
C282        C  0.01408053  0.00698595  0.50272294     0.07480
C283        C  0.99791589  0.02198982  0.54914705    -0.02310
C284        C  0.96534615  0.02510267  0.54836473    -0.02310
C285        C  0.94861024  0.01317558  0.50113785     0.07620
C286        C  0.96465500  0.99752642  0.45493208    -0.02510
Br287      Br  0.94261302  0.98366243  0.38830852    -0.01060
Br288      Br  0.01781481  0.97081772  0.39247541    -0.01130
Br289      Br  0.94395096  0.04359374  0.61341272    -0.01090
Br290      Br  0.01979910  0.03524227  0.61568075    -0.01070
C291        C  0.96914021  0.17320240  0.23418971    -0.02200
C292        C  0.95110209  0.13982662  0.20383719     0.07480
C293        C  0.97047562  0.11221268  0.16703693    -0.02310
C294        C  0.00361411  0.10981186  0.17453070    -0.02310
C295        C  0.02020838  0.14656051  0.20400522     0.07620
C296        C  0.99962726  0.18349950  0.21929728    -0.02510
Br297      Br  0.00019449  0.24428747  0.18386068    -0.01060
Br298      Br  0.95457763  0.21215016  0.29220672    -0.01130
Br299      Br  0.02293596  0.05418986  0.14234368    -0.01090
Br300      Br  0.95796096  0.08738367  0.09661045    -0.01070
C301        C  0.88292417  0.12717207  0.11287644    -0.02200
C302        C  0.90001040  0.10991822  0.15893389     0.07480
C303        C  0.90300518  0.05897880  0.16279149    -0.02310
C304        C  0.88955144  0.02877136  0.12374414    -0.02310
C305        C  0.87613076  0.04756243  0.07725797     0.07620
C306        C  0.87509366  0.09650733  0.07016058    -0.02510
Br307      Br  0.86198433  0.12147991  0.00129078    -0.01060
Br308      Br  0.86013395  0.18581634  0.11013885    -0.01130
Br309      Br  0.88940955  0.96083819  0.13322131    -0.01090
Br310      Br  0.92638515  0.02751953  0.21889862    -0.01070
C311        C  0.91439704  0.11701493  0.31057761    -0.02200
C312        C  0.89787830  0.12044270  0.26019553     0.07480
C313        C  0.86599031  0.10162278  0.26220379    -0.02310
C314        C  0.85300009  0.08448588  0.31101945    -0.02310
C315        C  0.86889025  0.08996140  0.35974807     0.07620
C316        C  0.89856509  0.11052815  0.35951002    -0.02510
Br317      Br  0.91998707  0.12364547  0.42678208    -0.01060
Br318      Br  0.95701516  0.09744925  0.31759644    -0.01130
Br319      Br  0.81180440  0.05597785  0.31344733    -0.01090
Br320      Br  0.83633541  0.09848534  0.20263790    -0.01070
C321        C  0.96920553  0.87231353  0.82123714    -0.02200
C322        C  0.95040350  0.87915552  0.77517783     0.07480
C323        C  0.96929185  0.89345863  0.72917893    -0.02310
C324        C  0.00298981  0.88849005  0.72950666    -0.02310
C325        C  0.01970077  0.86729088  0.77564108     0.07620
C326        C  0.99861480  0.85139945  0.81556826    -0.02510
Br327      Br  0.99620955  0.78546948  0.82887529    -0.01060
Br328      Br  0.97115677  0.92469485  0.87051702    -0.01130
Br329      Br  0.02171673  0.90533783  0.65960026    -0.01090
Br330      Br  0.95183696  0.91944174  0.66227590    -0.01070
C331        C  0.86845927  0.91363823  0.82546238    -0.02200
C332        C  0.89574414  0.88411221  0.82862380     0.07480
C333        C  0.90508771  0.87306340  0.88287269    -0.02310
C334        C  0.89334531  0.89926609  0.92731473    -0.02310
C335        C  0.87250186  0.93672771  0.91882771     0.07620
C336        C  0.86163402  0.94524511  0.86674192    -0.02510
Br337      Br  0.83668027  0.00029803  0.85080560    -0.01060
Br338      Br  0.83345363  0.90436014  0.77619226    -0.01130
Br339      Br  0.90485524  0.88297736  0.00029786    -0.01090
Br340      Br  0.92861080  0.81727185  0.90053529    -0.01070
C341        C  0.86386876  0.89111951  0.64151713    -0.02200
C342        C  0.86503125  0.94107973  0.64038431     0.07480
C343        C  0.87831036  0.96502315  0.68515134    -0.02310
C344        C  0.89563397  0.94027684  0.72426865    -0.02310
C345        C  0.89610373  0.88909696  0.72577347     0.07620
C346        C  0.87778752  0.86528154  0.68428430    -0.02510
Br347      Br  0.86595159  0.79896334  0.68358423    -0.01060
Br348      Br  0.83969671  0.85713663  0.58675920    -0.01130
Br349      Br  0.92014849  0.97942759  0.77391709    -0.01090
Br350      Br  0.87141224  0.03199178  0.69732457    -0.01070
C351        C  0.96611357  0.38326670  0.17470890    -0.02200
C352        C  0.94856898  0.36554089  0.21918209     0.07480
C353        C  0.96830222  0.35235086  0.26379747    -0.02310
C354        C  0.00047112  0.36468838  0.26469010    -0.02310
C355        C  0.01814489  0.36675350  0.21528571     0.07620
C356        C  0.99783008  0.37146062  0.16921435    -0.02510
Br357      Br  0.00588609  0.35165391  0.09677346    -0.01060
Br358      Br  0.95143310  0.42572145  0.11964179    -0.01130
Br359      Br  0.01090712  0.39838292  0.33129819    -0.01090
Br360      Br  0.95358744  0.32686483  0.33084718    -0.01070
C361        C  0.91954919  0.27821119  0.16764850    -0.02200
C362        C  0.90749212  0.30243733  0.21486404     0.07480
C363        C  0.89357388  0.27045357  0.25333658    -0.02310
C364        C  0.88728175  0.22268708  0.23991635    -0.02310
C365        C  0.90532025  0.19753090  0.20119157     0.07620
C366        C  0.92048039  0.22773134  0.16316542    -0.02510
Br367      Br  0.94004985  0.20126521  0.09951436    -0.01060
Br368      Br  0.93244139  0.31074456  0.10291847    -0.01130
Br369      Br  0.84613491  0.20349148  0.26110408    -0.01090
Br370      Br  0.88558281  0.28053969  0.32955294    -0.01070
C371        C  0.88846747  0.43954687  0.17779191    -0.02200
C372        C  0.89163962  0.38852350  0.17565221     0.07480
C373        C  0.87535596  0.36786902  0.13036858    -0.02310
C374        C  0.86968060  0.39485094  0.08332142    -0.02310
C375        C  0.87475226  0.44401064  0.08304502     0.07620
C376        C  0.88470222  0.46613339  0.13047599    -0.02510
Br377      Br  0.89069315  0.53414072  0.13273005    -0.01060
Br378      Br  0.86628946  0.47210222  0.23456506    -0.01130
Br379      Br  0.85589024  0.36417304  0.01759560    -0.01090
Br380      Br  0.85373874  0.30764086  0.13171005    -0.01070
C381        C  0.97493073  0.65685410  0.82901558    -0.02200
C382        C  0.95585422  0.63702858  0.78672219     0.07480
C383        C  0.97286162  0.61266228  0.74518295    -0.02310
C384        C  0.00645447  0.61004857  0.74552716    -0.02310
C385        C  0.02561208  0.63237009  0.78743358     0.07620
C386        C  0.00798634  0.65647538  0.82828287    -0.02510
Br387      Br  0.02784017  0.68639824  0.89091355    -0.01060
Br388      Br  0.95717710  0.69061338  0.88919391    -0.01130
Br389      Br  0.02265148  0.57857734  0.68179594    -0.01090
Br390      Br  0.95149718  0.58394848  0.68364347    -0.01070
C391        C  0.93280021  0.78266091  0.74570078    -0.02200
C392        C  0.91076287  0.80837714  0.77515018     0.07480
C393        C  0.88663337  0.77882527  0.79803037    -0.02310
C394        C  0.88707048  0.72855657  0.79034396    -0.02310
C395        C  0.91562890  0.70419588  0.78242853     0.07620
C396        C  0.93908343  0.73494781  0.75811788    -0.02510
Br397      Br  0.97766631  0.71734370  0.72447772    -0.01060
Br398      Br  0.94522616  0.80462479  0.67466382    -0.01130
Br399      Br  0.84733082  0.69634995  0.78646050    -0.01090
Br400      Br  0.84989742  0.80219218  0.83351061    -0.01070
C401        C  0.91496093  0.56991219  0.84899893    -0.02200
C402        C  0.90877051  0.62057866  0.84386854     0.07480
C403        C  0.89288212  0.64083156  0.89060366    -0.02310
C404        C  0.88219459  0.61166170  0.93355975    -0.02310
C405        C  0.88452947  0.56249372  0.93122398     0.07620
C406        C  0.90197486  0.54189973  0.89055583    -0.02510
Br407      Br  0.90474725  0.47312387  0.88920579    -0.01060
Br408      Br  0.93732742  0.53195611  0.79771903    -0.01130
Br409      Br  0.86463526  0.63800477  0.99908746    -0.01090
Br410      Br  0.88467793  0.70674266  0.90546511    -0.01070
C411        C  0.90643175  0.43867500  0.35164747    -0.02200
C412        C  0.87754106  0.42599051  0.37352909     0.07480
C413        C  0.85792282  0.39537984  0.34456716    -0.02310
C414        C  0.86761626  0.37594719  0.29465579    -0.02310
C415        C  0.89893359  0.38249897  0.27545593     0.07620
C416        C  0.91601985  0.42040007  0.30171777    -0.02510
Br417      Br  0.94532711  0.46173209  0.26439323    -0.01060
Br418      Br  0.93235394  0.48524611  0.38768382    -0.01130
Br419      Br  0.83556596  0.34553023  0.25233407    -0.01090
Br420      Br  0.81672631  0.38295855  0.37221922    -0.01070
C421        C  0.86502095  0.55684778  0.70623688    -0.02200
C422        C  0.86341421  0.57649868  0.65428266     0.07480
C423        C  0.87180079  0.62434379  0.64954868    -0.02310
C424        C  0.89248511  0.64472901  0.68744798    -0.02310
C425        C  0.89646582  0.62470731  0.74094426     0.07620
C426        C  0.87510704  0.58539246  0.74984372    -0.02510
Br427      Br  0.84627780  0.58063356  0.80968246    -0.01060
Br428      Br  0.84871668  0.49439016  0.72132782    -0.01130
Br429      Br  0.91692643  0.69259229  0.65354282    -0.01090
Br430      Br  0.85402810  0.66340604  0.59296007    -0.01070
C431        C  0.07502801  0.47226424  0.31205075    -0.02200
C432        C  0.10015344  0.45570839  0.34224973     0.07480
C433        C  0.11512183  0.41507826  0.32560482    -0.02310
C434        C  0.10129182  0.38421158  0.28716493    -0.02310
C435        C  0.07323443  0.39735810  0.25680087     0.07620
C436        C  0.06247037  0.44516537  0.26860059    -0.02510
Br437      Br  0.02624001  0.47469438  0.23637822    -0.01060
Br438      Br  0.05610393  0.53143088  0.33398226    -0.01130
Br439      Br  0.12224638  0.32394245  0.29084480    -0.01090
Br440      Br  0.15580169  0.40333031  0.35790312    -0.01070
C441        C  0.10398797  0.63239977  0.70518511    -0.02200
C442        C  0.08187722  0.61018472  0.74184962     0.07480
C443        C  0.08097943  0.55893985  0.73771270    -0.02310
C444        C  0.09355625  0.53483855  0.69254838    -0.02310
C445        C  0.10878617  0.56013665  0.65158443     0.07620
C446        C  0.11671589  0.60740210  0.66112294    -0.02510
Br447      Br  0.14793739  0.63639675  0.61460392    -0.01060
Br448      Br  0.12205517  0.69493742  0.71230478    -0.01130
Br449      Br  0.08736464  0.46704227  0.68517128    -0.01090
Br450      Br  0.05800900  0.51879296  0.78672763    -0.01070
C451        C  0.00234769  0.54602469  0.52180982    -0.02200
C452        C  0.01843039  0.50413901  0.50889630     0.07480
C453        C  0.00202014  0.46095067  0.50282072    -0.02310
C454        C  0.96975443  0.45957831  0.50991209    -0.02310
C455        C  0.95358984  0.50173387  0.52110499     0.07620
C456        C  0.96992812  0.54497171  0.52674652    -0.02510
Br457      Br  0.94821443  0.60331948  0.54137432    -0.01060
Br458      Br  0.02429941  0.60505175  0.53504269    -0.01130
Br459      Br  0.94782627  0.40016113  0.49874055    -0.01090
Br460      Br  0.02293110  0.40371021  0.48062783    -0.01070
C461        C  0.71224012  0.46577297  0.53376815    -0.02200
C462        C  0.69702270  0.50055657  0.50372281     0.07480
C463        C  0.71407512  0.53350338  0.47365991    -0.02310
C464        C  0.74672472  0.53164692  0.47278873    -0.01990
C465        C  0.76283648  0.49714600  0.50412170     0.07620
C466        C  0.74491914  0.46404530  0.53473112    -0.02510
Br467      Br  0.76341354  0.41554679  0.57930464    -0.01060
Br468      Br  0.68765222  0.42000883  0.57325424    -0.01130
Br469      Br  0.76762227  0.57628747  0.42579058    -0.01090
Br470      Br  0.69200067  0.58117485  0.43312205    -0.01070
C471        C  0.57779066  0.36984917  0.38208255    -0.02200
C472        C  0.57855670  0.38371419  0.32579202     0.07480
C473        C  0.60016376  0.42213061  0.31609568    -0.02310
C474        C  0.60715086  0.45540625  0.35667582    -0.02310
C475        C  0.60191673  0.44438654  0.41074102     0.07620
C476        C  0.58934962  0.40012804  0.42348218    -0.02510
Br477      Br  0.58802399  0.38187427  0.49905403    -0.01060
Br478      Br  0.56470758  0.31000294  0.40881857    -0.01130
Br479      Br  0.62604462  0.51544675  0.33806688    -0.01090
Br480      Br  0.63123680  0.42233606  0.25971031    -0.01070
C481        C  0.57342694  0.55653646  0.66514271    -0.02200
C482        C  0.56683979  0.60655588  0.65924535     0.07480
C483        C  0.56572246  0.62032512  0.60283588    -0.02310
C484        C  0.58124050  0.59399552  0.56235361    -0.02310
C485        C  0.59411129  0.55028026  0.57421152     0.07620
C486        C  0.58890616  0.53048817  0.62465334    -0.02510
Br487      Br  0.60408393  0.46701484  0.63783232    -0.01060
Br488      Br  0.56028202  0.51768826  0.72357458    -0.01130
Br489      Br  0.58631045  0.61792978  0.48942119    -0.01090
Br490      Br  0.54159254  0.66983259  0.57184698    -0.01070
C491        C  0.74058717  0.96812298  0.49457565    -0.02200
C492        C  0.75660813  0.01217195  0.50032833     0.07480
C493        C  0.73873862  0.05355199  0.50871445    -0.02310
C494        C  0.70606472  0.05056067  0.51268796    -0.02310
C495        C  0.69027714  0.00740659  0.50302531     0.07620
C496        C  0.70775781  0.96628977  0.49361437    -0.02510
Br497      Br  0.68667145  0.90728612  0.47723153    -0.01060
Br498      Br  0.76259940  0.90877786  0.49105485    -0.01130
Br499      Br  0.68307986  0.10552304  0.53481184    -0.01090
Br500      Br  0.75787148  0.11570033  0.51169415    -0.01070
C501        C  0.58718566  0.27562056  0.28163020    -0.02200
C502        C  0.55983868  0.30355761  0.28416683     0.07480
C503        C  0.53283398  0.27659175  0.29503931    -0.02310
C504        C  0.52981005  0.23034381  0.27924918    -0.02310
C505        C  0.55596260  0.19938436  0.27799415     0.07620
C506        C  0.58530053  0.22493007  0.27450316    -0.02510
Br507      Br  0.62410887  0.19443888  0.25922637    -0.01060
Br508      Br  0.62758265  0.30517856  0.28860948    -0.01130
Br509      Br  0.48897977  0.22359812  0.24734102    -0.01090
Br510      Br  0.50198023  0.29239021  0.34732013    -0.01070
C511        C  0.55760130  0.06531639  0.33973087    -0.02200
C512        C  0.56354933  0.11581703  0.33311930     0.07480
C513        C  0.58051622  0.13716163  0.37811140    -0.02310
C514        C  0.59156403  0.10955606  0.42172953    -0.02310
C515        C  0.59050764  0.06036067  0.41922338     0.07620
C516        C  0.57393064  0.03829455  0.37795730    -0.02510
Br517      Br  0.57624113  0.97001381  0.37101273    -0.01060
Br518      Br  0.52579437  0.02816281  0.30448236    -0.01130
Br519      Br  0.60785455  0.13831177  0.48745268    -0.01090
Br520      Br  0.58974685  0.20263642  0.38890835    -0.01070
C521        C  0.58442083  0.77470498  0.66392856    -0.02200
C522        C  0.57029415  0.79919624  0.71007904     0.07480
C523        C  0.57283238  0.76961857  0.75794959    -0.02310
C524        C  0.58190759  0.72212111  0.75229580    -0.02310
C525        C  0.57363476  0.69615077  0.70593743     0.07620
C526        C  0.58523887  0.72302518  0.66139971    -0.02510
Br527      Br  0.61593249  0.69449054  0.61490496    -0.01060
Br528      Br  0.61458348  0.80602785  0.61749799    -0.01130
Br529      Br  0.62436847  0.71101479  0.77696743    -0.01090
Br530      Br  0.58055265  0.78846375  0.83282263    -0.01070
C531        C  0.59077161  0.96179813  0.62913385    -0.02200
C532        C  0.58801924  0.94850232  0.57527467     0.07480
C533        C  0.57329790  0.90500741  0.56304628    -0.02310
C534        C  0.56283194  0.87500377  0.60551630    -0.02310
C535        C  0.57280241  0.88393585  0.66045962     0.07620
C536        C  0.59172326  0.92596418  0.66724510    -0.02510
Br537      Br  0.63552536  0.92300025  0.68233213    -0.01060
Br538      Br  0.60374353  0.02508405  0.64922662    -0.01130
Br539      Br  0.53557035  0.82315544  0.58552969    -0.01090
Br540      Br  0.56646585  0.88791145  0.48869167    -0.01070
C541        C  0.24342849  0.04984692  0.98647490    -0.02200
C542        C  0.25977869  0.00689369  0.99371953     0.07480
C543        C  0.24238322  0.96463068  0.00191633    -0.02310
C544        C  0.20964019  0.96580140  0.00513970    -0.02310
C545        C  0.19347984  0.00821949  0.99544060     0.07620
C546        C  0.21062559  0.04999465  0.98493243    -0.02510
Br547      Br  0.18930008  0.10754551  0.96572635    -0.01060
Br548      Br  0.26517461  0.10987781  0.98208911    -0.01130
Br549      Br  0.18708370  0.90930849  0.02580121    -0.01090
Br550      Br  0.26252578  0.90381146  0.00569504    -0.01070
C551        C  0.75660992  0.94605772  0.01278751    -0.02200
C552        C  0.77437394  0.98794370  0.00739569     0.07480
C553        C  0.75896180  0.03142914  0.00028606    -0.02310
C554        C  0.72631604  0.03342258  0.00169818    -0.02310
C555        C  0.70840958  0.99124637  0.00449152     0.07620
C556        C  0.72392052  0.94737827  0.00892853    -0.02510
Br557      Br  0.70114252  0.88820874  0.00603009    -0.01060
Br558      Br  0.77691595  0.88669653  0.02732314    -0.01130
Br559      Br  0.70687414  0.09495437  0.00294981    -0.01090
Br560      Br  0.78212762  0.08845417  0.98453104    -0.01070
C561        C  0.58050018  0.11903846  0.12876789    -0.02200
C562        C  0.60039609  0.08008789  0.13466285     0.07480
C563        C  0.60930113  0.06649219  0.18666842    -0.02310
C564        C  0.59731157  0.08965233  0.23277806    -0.02310
C565        C  0.57157543  0.12279558  0.22845562     0.07620
C566        C  0.56640104  0.14021393  0.17441801    -0.02510
Br567      Br  0.53678831  0.18841990  0.15712936    -0.01060
Br568      Br  0.56916107  0.14040399  0.05685703    -0.01130
Br569      Br  0.62468167  0.08224016  0.29495198    -0.01090
Br570      Br  0.64082642  0.01797664  0.19408182    -0.01070
C571        C  0.55785153  0.90968642  0.79696420    -0.02200
C572        C  0.57549817  0.87953857  0.76311180     0.07480
C573        C  0.60777720  0.87371451  0.78001047    -0.02310
C574        C  0.61953263  0.89841422  0.82603473    -0.02310
C575        C  0.59880356  0.91909188  0.86228358     0.07620
C576        C  0.56732470  0.91851976  0.84949204    -0.02510
Br577      Br  0.53612107  0.92667845  0.90326411    -0.01060
Br578      Br  0.53076412  0.95803572  0.77101094    -0.01130
Br579      Br  0.66343083  0.90167762  0.84188404    -0.01090
Br580      Br  0.63679700  0.82885962  0.74893447    -0.01070
C581        C  0.46840097  0.02331453  0.95107541    -0.02200
C582        C  0.45170275  0.00564662  0.99574068     0.07480
C583        C  0.46796607  0.98796676  0.04091717    -0.02310
C584        C  0.50058306  0.98842543  0.04164337    -0.02310
C585        C  0.51736173  0.00751169  0.99767192     0.07620
C586        C  0.50102142  0.02589522  0.95276370    -0.02510
Br587      Br  0.52265972  0.05174734  0.89096363    -0.01060
Br588      Br  0.44709100  0.03925818  0.88465586    -0.01130
Br589      Br  0.52171854  0.96347528  0.10450705    -0.01090
Br590      Br  0.44611331  0.96307273  0.10294146    -0.01070
C591        C  0.25480979  0.02586439  0.55370916    -0.02200
C592        C  0.27214501  0.00705799  0.51069441     0.07480
C593        C  0.25641933  0.98759423  0.46567715    -0.02310
C594        C  0.22369217  0.98869167  0.46255427    -0.02310
C595        C  0.20613153  0.00735569  0.50572866     0.07620
C596        C  0.22201409  0.02510756  0.55186480    -0.02510
Br597      Br  0.19930600  0.04625425  0.61445590    -0.01060
Br598      Br  0.27606519  0.05434414  0.61457740    -0.01130
Br599      Br  0.20351553  0.96693986  0.39717138    -0.01090
Br600      Br  0.27981722  0.95794729  0.40863970    -0.01070
C601        C  0.46337007  0.10765245  0.23702090    -0.02200
C602        C  0.44600779  0.12700921  0.28226514     0.07480
C603        C  0.46529590  0.13028990  0.32894796    -0.02310
C604        C  0.49697644  0.14183283  0.32557568    -0.02310
C605        C  0.51500851  0.13107933  0.27847021     0.07620
C606        C  0.49706096  0.10813824  0.23622051    -0.02510
Br607      Br  0.51634539  0.06786832  0.18221118    -0.01060
Br608      Br  0.44466471  0.06928179  0.18010386    -0.01130
Br609      Br  0.51240190  0.17336870  0.38971311    -0.01090
Br610      Br  0.45828319  0.09088549  0.39176968    -0.01070
C611        C  0.36738687  0.11237715  0.42400822    -0.02200
C612        C  0.37103567  0.06355269  0.42789452     0.07480
C613        C  0.38521568  0.03899848  0.38568182    -0.02310
C614        C  0.39679533  0.06352476  0.34017296    -0.02310
C615        C  0.39399963  0.11429160  0.33503666     0.07620
C616        C  0.37530856  0.13623282  0.37619306    -0.02510
Br617      Br  0.35018454  0.19099382  0.36501700    -0.01060
Br618      Br  0.34979158  0.14647345  0.48452416    -0.01130
Br619      Br  0.41521803  0.02379450  0.28652766    -0.01090
Br620      Br  0.38815844  0.97066805  0.39036738    -0.01070
C621        C  0.38721144  0.12618788  0.13028474    -0.02200
C622        C  0.36603513  0.08795656  0.13164919     0.07480
C623        C  0.35327581  0.07476617  0.18126754    -0.02310
C624        C  0.36326685  0.09669030  0.22973114    -0.02310
C625        C  0.39061536  0.12728716  0.23105596     0.07620
C626        C  0.39932676  0.14586001  0.17891144    -0.02510
Br627      Br  0.43094582  0.19376659  0.16947909    -0.01060
Br628      Br  0.40395864  0.14681568  0.06159110    -0.01130
Br629      Br  0.33240565  0.09166134  0.28643551    -0.01090
Br630      Br  0.31976319  0.02825556  0.18190281    -0.01070
C631        C  0.46944657  0.86257233  0.76037981    -0.02200
C632        C  0.45096639  0.86833082  0.71337412     0.07480
C633        C  0.47033099  0.88063517  0.66742539    -0.02310
C634        C  0.50321738  0.88709376  0.67331806    -0.02310
C635        C  0.52126728  0.86121666  0.71311009     0.07620
C636        C  0.50104451  0.84757599  0.75723117    -0.02510
Br637      Br  0.51279065  0.81948574  0.82351860    -0.01060
Br638      Br  0.46327434  0.90611742  0.81985599    -0.01130
Br639      Br  0.51588223  0.94742957  0.64245885    -0.01090
Br640      Br  0.45639479  0.89360796  0.59392663    -0.01070
C641        C  0.39104737  0.97056355  0.62796828    -0.02200
C642        C  0.37442245  0.95184833  0.58423197     0.07480
C643        C  0.37249841  0.90284494  0.57720127    -0.02310
C644        C  0.38306718  0.87186603  0.61786280    -0.02310
C645        C  0.40041253  0.88935780  0.66378108     0.07620
C646        C  0.40505800  0.94027613  0.66601234    -0.02510
Br647      Br  0.42847563  0.97195081  0.72264137    -0.01060
Br648      Br  0.39273063  0.03857445  0.63727833    -0.01130
Br649      Br  0.36539431  0.81007878  0.61162645    -0.01090
Br650      Br  0.35389398  0.87869436  0.51103453    -0.01070
C651        C  0.40004538  0.86049195  0.81823876    -0.02200
C652        C  0.39398447  0.87703328  0.76467632     0.07480
C653        C  0.36748866  0.90892782  0.76192463    -0.02310
C654        C  0.35767734  0.93472008  0.80761287    -0.02310
C655        C  0.36892503  0.92359053  0.85902079     0.07620
C656        C  0.38895735  0.88469693  0.86439514    -0.02510
Br657      Br  0.40430109  0.86684394  0.93517096    -0.01060
Br658      Br  0.42256932  0.80398232  0.83264381    -0.01130
Br659      Br  0.32646878  0.98353445  0.80017473    -0.01090
Br660      Br  0.33674277  0.90996083  0.70388665    -0.01070
C661        C  0.25713365  0.48474677  0.53520730    -0.02200
C662        C  0.27376712  0.51421535  0.49992717     0.07480
C663        C  0.25797062  0.54325452  0.46322679    -0.02310
C664        C  0.22533955  0.54173943  0.46028394    -0.02310
C665        C  0.20828020  0.51224930  0.49584104     0.07620
C666        C  0.22451096  0.48455410  0.53432533    -0.02510
Br667      Br  0.20295981  0.44775258  0.58850075    -0.01060
Br668      Br  0.27931964  0.44326284  0.58360704    -0.01130
Br669      Br  0.20493522  0.57837250  0.40500235    -0.01090
Br670      Br  0.28139988  0.58524500  0.41710988    -0.01070
C671        C  0.47167364  0.40589247  0.31199702    -0.02200
C672        C  0.45189314  0.37434364  0.28254482     0.07480
C673        C  0.46781004  0.35590000  0.23694668    -0.02310
C674        C  0.50104438  0.35450208  0.23412620    -0.02310
C675        C  0.52093828  0.37196602  0.27727775     0.07620
C676        C  0.50409380  0.39820490  0.31748577    -0.02510
Br677      Br  0.52160536  0.43202586  0.37818547    -0.01060
Br678      Br  0.46567788  0.47289553  0.30228907    -0.01130
Br679      Br  0.51706770  0.32523178  0.16963804    -0.01090
Br680      Br  0.44584525  0.34313635  0.17114323    -0.01070
C681        C  0.38768548  0.22940428  0.25970252    -0.02200
C682        C  0.40681329  0.19995617  0.29316997     0.07480
C683        C  0.42187500  0.22690693  0.33537570    -0.02310
C684        C  0.42323911  0.27798886  0.33531402    -0.02310
C685        C  0.41077883  0.30653925  0.29210709     0.07620
C686        C  0.39387684  0.27855445  0.25228151    -0.02510
Br687      Br  0.37968287  0.29764384  0.18120064    -0.01060
Br688      Br  0.34690571  0.20889281  0.23297653    -0.01130
Br689      Br  0.43686080  0.30713036  0.40270873    -0.01090
Br690      Br  0.43208189  0.19806489  0.40376363    -0.01070
C691        C  0.37472828  0.37000535  0.37825612    -0.02200
C692        C  0.40233723  0.38559387  0.35008695     0.07480
C693        C  0.41564917  0.42747390  0.37257569    -0.02310
C694        C  0.39639974  0.46235047  0.39345092    -0.02310
C695        C  0.36965369  0.44790222  0.42091479     0.07620
C696        C  0.35988488  0.40035297  0.41579236    -0.02510
Br697      Br  0.32773512  0.37596538  0.46323128    -0.01060
Br698      Br  0.35858246  0.30637826  0.37746333    -0.01130
Br699      Br  0.41206756  0.52657908  0.39750618    -0.01090
Br700      Br  0.44723961  0.42001080  0.42732810    -0.01070
C701        C  0.47252209  0.61076249  0.76226585    -0.02200
C702        C  0.45444179  0.63212823  0.71986211     0.07480
C703        C  0.47323181  0.64890146  0.67611855    -0.02310
C704        C  0.50426747  0.66256995  0.68442362    -0.02310
C705        C  0.52369955  0.63829399  0.72096511     0.07620
C706        C  0.50613659  0.60895363  0.75941255    -0.02510
Br707      Br  0.52395311  0.56735829  0.81426352    -0.01060
Br708      Br  0.45321473  0.57665721  0.82190307    -0.01130
Br709      Br  0.51227216  0.72742152  0.66330894    -0.01090
Br710      Br  0.45985999  0.65683478  0.60266095    -0.01070
C711        C  0.43782222  0.72948722  0.71180795    -0.02200
C712        C  0.41232874  0.69766611  0.71870792     0.07480
C713        C  0.38348460  0.72221159  0.72710636    -0.02310
C714        C  0.38230277  0.77343218  0.72757411    -0.02310
C715        C  0.40813844  0.80191791  0.70772885     0.07620
C716        C  0.43304769  0.77415878  0.68966601    -0.02510
Br717      Br  0.44729602  0.78110939  0.61731761    -0.01060
Br718      Br  0.47008741  0.73289194  0.76530492    -0.01130
Br719      Br  0.34355513  0.80024650  0.75111379    -0.01090
Br720      Br  0.34471696  0.68837691  0.73524833    -0.01070
C721        C  0.38875744  0.63460160  0.62073236    -0.02200
C722        C  0.40556490  0.61337341  0.66499271     0.07480
C723        C  0.41105784  0.56299124  0.65872081    -0.02310
C724        C  0.39563312  0.53578526  0.61850291    -0.02310
C725        C  0.37660884  0.55762471  0.58032033     0.07620
C726        C  0.37491151  0.60692712  0.57936203    -0.02510
Br727      Br  0.35419483  0.63627295  0.51804310    -0.01060
Br728      Br  0.38681845  0.70051412  0.60621154    -0.01130
Br729      Br  0.39741042  0.46718433  0.61922756    -0.01090
Br730      Br  0.43739516  0.52630795  0.70521888    -0.01070
C731        C  0.22096680  0.52582970  0.05805636    -0.02200
C732        C  0.20371222  0.50348822  0.01706722     0.07480
C733        C  0.21876337  0.47795332  0.97626160    -0.02310
C734        C  0.25122035  0.47899525  0.97282332    -0.02310
C735        C  0.26896150  0.50107186  0.01415347     0.07620
C736        C  0.25355843  0.52326371  0.05782637    -0.02510
Br737      Br  0.27621470  0.54759560  0.11956998    -0.01060
Br738      Br  0.19963772  0.55888735  0.11500778    -0.01130
Br739      Br  0.27030367  0.45258649  0.90904284    -0.01090
Br740      Br  0.19495002  0.43839356  0.92741436    -0.01070
C741        C  0.40559726  0.44501696  0.17570723    -0.02200
C742        C  0.37699482  0.43371088  0.15112632     0.07480
C743        C  0.35497747  0.40780589  0.18135316    -0.02310
C744        C  0.36387659  0.38811403  0.23221685    -0.02310
C745        C  0.39567844  0.39339534  0.24991200     0.07620
C746        C  0.40880508  0.43580283  0.23030107    -0.02510
Br747      Br  0.39334946  0.49164309  0.26553226    -0.01060
Br748      Br  0.43598082  0.48586775  0.14307640    -0.01130
Br749      Br  0.33200044  0.35522492  0.27087166    -0.01090
Br750      Br  0.31357628  0.39931118  0.15246721    -0.01070
C751        C  0.37865737  0.62107041  0.86359886    -0.02200
C752        C  0.36892636  0.57342327  0.86120747     0.07480
C753        C  0.36735602  0.55266225  0.80951632    -0.02310
C754        C  0.37548797  0.57975818  0.76367182    -0.02310
C755        C  0.39714388  0.61925116  0.76843106     0.07620
C756        C  0.39677581  0.64012246  0.82153376    -0.02510
Br757      Br  0.42451639  0.68749905  0.84711604    -0.01060
Br758      Br  0.36664836  0.66233729  0.92269402    -0.01130
Br759      Br  0.34475052  0.57265756  0.70658851    -0.01090
Br760      Br  0.34986927  0.49015928  0.79852735    -0.01070
C761        C  0.76399000  0.54580907  0.00793564    -0.02200
C762        C  0.78023012  0.50491265  0.99293567     0.07480
C763        C  0.76359783  0.46389672  0.97783881    -0.02310
C764        C  0.73094567  0.46257760  0.98109365    -0.02310
C765        C  0.71422208  0.50418344  0.99439840     0.07620
C766        C  0.73129753  0.54639352  0.00603743    -0.02510
Br767      Br  0.71124633  0.60676556  0.01691667    -0.01060
Br768      Br  0.78651202  0.60061634  0.03419699    -0.01130
Br769      Br  0.71048136  0.40202689  0.97028987    -0.01090
Br770      Br  0.78570665  0.40960626  0.95090980    -0.01070
C771        C  0.60432459  0.38138526  0.13904364    -0.02200
C772        C  0.59711747  0.42864535  0.12818991     0.07480
C773        C  0.57468698  0.45080100  0.16044294    -0.02310
C774        C  0.56413578  0.42958435  0.20844748    -0.02310
C775        C  0.57034030  0.38057103  0.22109750     0.07620
C776        C  0.58843965  0.35591997  0.18010370    -0.02510
Br777      Br  0.58847426  0.28877578  0.16481390    -0.01060
Br778      Br  0.63702727  0.35151155  0.09785079    -0.01130
Br779      Br  0.54457519  0.47376706  0.25696971    -0.01090
Br780      Br  0.55652182  0.51037228  0.13797438    -0.01070
C781        C  0.62097467  0.57572147  0.80516871    -0.02200
C782        C  0.61115610  0.58870213  0.85697026     0.07480
C783        C  0.59094262  0.62726925  0.86159189    -0.02310
C784        C  0.57255368  0.64079843  0.81709274    -0.02310
C785        C  0.57943631  0.62331886  0.76324545     0.07620
C786        C  0.60839357  0.59840991  0.75947293    -0.02510
Br787      Br  0.63593331  0.60350438  0.69828097    -0.01060
Br788      Br  0.65463221  0.53153656  0.79708199    -0.01130
Br789      Br  0.53802027  0.68254148  0.83508400    -0.01090
Br790      Br  0.59140396  0.66626547  0.92592713    -0.01070
C791        C  0.50587796  0.54677069  0.98238638    -0.02200
C792        C  0.52332817  0.50588577  0.99279650     0.07480
C793        C  0.50821241  0.46312477  0.00659242    -0.02310
C794        C  0.47569409  0.46105639  0.00837925    -0.02310
C795        C  0.45831662  0.50197266  0.99722057     0.07620
C796        C  0.47343067  0.54487111  0.98437334    -0.02510
Br797      Br  0.44996178  0.60111503  0.96728838    -0.01060
Br798      Br  0.52589869  0.60551321  0.96407651    -0.01130
Br799      Br  0.45537952  0.40268194  0.02938995    -0.01090
Br800      Br  0.53179656  0.40804325  0.02733324    -0.01070
loop_ 
_geom_bond_atom_site_label_1 
_geom_bond_atom_site_label_2 
_geom_bond_distance 
_geom_bond_site_symmetry_2 
_ccdc_geom_bond_type 
O1           Cu9   1.996       .  S
O1           C11   1.276   1_554  A
O2           Cu9   1.997       .  S
O2           C12   1.275   1_554  A
O3           Cu9   2.005   1_556  S
O3           C13   1.276       .  A
O4           Cu9   1.996       .  S
O4           C14   1.276       .  A
O5          Cu10   2.035   1_554  S
O5           C14   1.282       .  A
O6          Cu10   2.016       .  S
O6           C13   1.279       .  A
O7          Cu10   2.008       .  S
O7           C12   1.277       .  A
O8          Cu10   1.977       .  S
O8           C11   1.273       .  A
Cu9         Cu10   2.363   1_554  S
C11         C792   1.464       .  S
C12         C765   1.498       .  S
C13         C782   1.492       .  S
C14         C772   1.498       .  S
O15         Cu23   1.985       .  S
O15          C25   1.274       .  A
O16         Cu23   1.973       .  S
O16          C26   1.274       .  A
O17         Cu23   1.990   1_556  S
O17          C27   1.274       .  A
O18         Cu23   1.994       .  S
O18          C28   1.276       .  A
O19         Cu24   2.030   1_554  S
O19          C28   1.279       .  A
O20         Cu24   2.039       .  S
O20          C27   1.280       .  A
O21         Cu24   1.982       .  S
O21          C26   1.274   1_556  A
O22         Cu24   1.994       .  S
O22          C25   1.276   1_556  A
Cu23        Cu24   2.365   1_554  S
C25         C735   1.478       .  S
C26         C795   1.461   1_554  S
C27         C752   1.508       .  S
C28         C742   1.474       .  S
C29         C702   1.626       .  S
C29         C712   1.627       .  S
C29         C722   1.610       .  S
C29         C755   1.625       .  S
C30         C672   1.646       .  S
C30         C685   1.641       .  S
C30         C692   1.613       .  S
C30         C745   1.595       .  S
C31         C695   1.483       .  S
C31          C32   1.408       .  A
C31          C36   1.398       .  A
C32          C33   1.402       .  A
C32          H37   1.083       .  S
C33         C725   1.486       .  S
C33          C34   1.403       .  A
C34          C35   1.399       .  A
C34          H38   1.084       .  S
C35         C662   1.470       .  S
C35          C36   1.397       .  A
C36          H39   1.084       .  S
C40         C632   1.654       .  S
C40         C645   1.585       .  S
C40         C652   1.625       .  S
C40         C715   1.616       .  S
C41         C602   1.652       .  S
C41         C615   1.603       .  S
C41         C625   1.614       .  S
C41         C682   1.647       .  S
C42         C642   1.483       .  S
C42          C43   1.402   1_565  A
C42          C47   1.409       .  A
C43          C44   1.402       .  A
C43          H48   1.084       .  S
C44         C612   1.483       .  S
C44          C45   1.405       .  A
C45          C46   1.402       .  A
C45          H49   1.085       .  S
C46         C592   1.490       .  S
C46          C47   1.404   1_545  A
C47          H50   1.084       .  S
O51         Cu59   1.984       .  S
O51          C61   1.276   1_564  A
O52         Cu59   2.012       .  S
O52          C62   1.278       .  A
O53         Cu59   2.010   1_545  S
O53          C63   1.278       .  A
O54         Cu59   2.020   1_556  S
O54          C64   1.277       .  A
O55         Cu60   2.016   1_565  S
O55          C64   1.279       .  A
O56         Cu60   2.014   1_554  S
O56          C63   1.278       .  A
O57         Cu60   2.004       .  S
O57          C62   1.277   1_546  A
O58         Cu60   1.999       .  S
O58          C61   1.275       .  A
Cu59        Cu60   2.359   1_564  S
C61         C585   1.481       .  S
C62         C555   1.491       .  S
C63         C562   1.496       .  S
C64         C575   1.477       .  S
O65         Cu73   2.015       .  S
O65          C75   1.278   1_564  A
O66         Cu73   1.991       .  S
O66          C76   1.275   1_564  A
O67         Cu73   2.010   1_545  S
O67          C77   1.278       .  A
O68         Cu73   2.011   1_556  S
O68          C78   1.278       .  A
O69         Cu74   2.015   1_565  S
O69          C78   1.279       .  A
O70         Cu74   2.019   1_554  S
O70          C77   1.278       .  A
O71         Cu74   1.994       .  S
O71          C76   1.276       .  A
O72         Cu74   2.021       .  S
O72          C75   1.279       .  A
Cu73        Cu74   2.354   1_564  S
C75         C542   1.501       .  S
C76         C582   1.477       .  S
C77         C622   1.494       .  S
C78         C655   1.494       .  S
C79         C522   1.649       .  S
C79         C535   1.604       .  S
C79         C572   1.596       .  S
C79         C635   1.673       .  S
C80         C505   1.619       .  S
C80         C512   1.619       .  S
C80         C565   1.616       .  S
C80         C605   1.617       .  S
C81         C532   1.484       .  S
C81          C82   1.398   1_565  A
C81          C86   1.412       .  A
C82          C83   1.403       .  A
C82          H87   1.084       .  S
C83         C515   1.479       .  S
C83          C84   1.405       .  A
C84          C85   1.403       .  A
C84          H88   1.083       .  S
C85         C495   1.496       .  S
C85          C86   1.407   1_545  A
C86          H89   1.086       .  S
C90         C482   1.640       .  S
C90         C525   1.647       .  S
C90         C705   1.626       .  S
C90         C785   1.596       .  S
C91         C472   1.625       .  S
C91         C502   1.598       .  S
C91         C675   1.633       .  S
C91         C775   1.618       .  S
C92         C475   1.481       .  S
C92          C93   1.407       .  A
C92          C97   1.398       .  A
C93          C94   1.409       .  A
C93          H98   1.084       .  S
C94         C485   1.482       .  S
C94          C95   1.402       .  A
C95          C96   1.398       .  A
C95          H99   1.084       .  S
C96         C462   1.470       .  S
C96          C97   1.395       .  A
C97         H100   1.085       .  S
O101       Cu109   1.975       .  S
O101        C111   1.273       .  A
O102       Cu109   1.987       .  S
O102        C112   1.274       .  A
O103       Cu109   2.014       .  S
O103        C113   1.277       .  A
O104       Cu109   2.013       .  S
O104        C114   1.280       .  A
O105       Cu110   2.012       .  S
O105        C114   1.277       .  A
O106       Cu110   1.999       .  S
O106        C113   1.278       .  A
O107       Cu110   2.008       .  S
O107        C112   1.277       .  A
O108       Cu110   1.986       .  S
O108        C111   1.275       .  A
Cu109      Cu110   2.356       .  S
C111        C452   1.468       .  S
C112        C665   1.484       .  S
C113        C445   1.494       .  S
C114        C432   1.489       .  S
O115       Cu123   1.991       .  S
O115        C125   1.273       .  A
O116       Cu123   1.973       .  S
O116        C126   1.274       .  A
O117       Cu123   2.003       .  S
O117        C127   1.277       .  A
O118       Cu123   1.989       .  S
O118        C128   1.275       .  A
O119       Cu124   2.023       .  S
O119        C128   1.278       .  A
O120       Cu124   2.030       .  S
O120        C127   1.279       .  A
O121       Cu124   1.988       .  S
O121        C126   1.275       .  A
O122       Cu124   2.007       .  S
O122        C125   1.276       .  A
Cu123      Cu124   2.359       .  S
C125        C465   1.502       .  S
C126        C455   1.466       .  S
C127        C412   1.482       .  S
C128        C422   1.501       .  S
C129        C382   1.621       .  S
C129        C395   1.629       .  S
C129        C402   1.634       .  S
C129        C425   1.632       .  S
C130        C352   1.622       .  S
C130        C362   1.627       .  S
C130        C372   1.626       .  S
C130        C415   1.589       .  S
C131        C405   1.490       .  S
C131        C132   1.407       .  A
C131        C136   1.410   1_556  A
C132        C133   1.402       .  A
C132        H137   1.084       .  S
C133        C762   1.483       .  S
C133        C134   1.398   1_556  A
C134        C135   1.401       .  A
C134        H138   1.085       .  S
C135        C375   1.483       .  S
C135        C136   1.407       .  A
C136        H139   1.084       .  S
C140        C322   1.654       .  S
C140        C332   1.607       .  S
C140        C345   1.597       .  S
C140        C392   1.598       .  S
C141        C292   1.628       .  S
C141        C302   1.575       .  S
C141        C312   1.622       .  S
C141        C365   1.618       .  S
C142        C305   1.473       .  S
C142        C143   1.403       .  A
C142        C147   1.402   1_544  A
C143        C144   1.400   1_545  A
C143        H148   1.084       .  S
C144        C552   1.491       .  S
C144        C145   1.401   1_554  A
C145        C146   1.409       .  A
C145        H149   1.084       .  S
C146        C335   1.485       .  S
C146        C147   1.402       .  A
C147        H150   1.084       .  S
O151       Cu159   2.021       .  S
O151        C161   1.279   1_565  A
O152       Cu159   2.001       .  S
O152        C162   1.276   1_565  A
O153       Cu159   2.015   1_545  S
O153        C163   1.277       .  A
O154       Cu159   1.993       .  S
O154        C164   1.276       .  A
O155       Cu160   2.008       .  S
O155        C164   1.276   1_545  A
O156       Cu160   2.000       .  S
O156        C163   1.277       .  A
O157       Cu160   1.998       .  S
O157        C162   1.276       .  A
O158       Cu160   2.014       .  S
O158        C161   1.278       .  A
Cu159      Cu160   2.358   1_565  S
C161        C595   1.494       .  S
C162        C282   1.481       .  S
C163        C262   1.498       .  S
C164        C275   1.497       .  S
O165       Cu173   2.025       .  S
O165        C175   1.279       .  A
O166       Cu173   2.005       .  S
O166        C176   1.278       .  A
O167       Cu173   2.016       .  S
O167        C177   1.278       .  A
O168       Cu173   1.999       .  S
O168        C178   1.274   1_545  A
O169       Cu174   2.005       .  S
O169        C178   1.277       .  A
O170       Cu174   2.008   1_545  S
O170        C177   1.279       .  A
O171       Cu174   1.977       .  S
O171        C176   1.273   1_565  A
O172       Cu174   2.011       .  S
O172        C175   1.276   1_565  A
Cu173      Cu174   2.359   1_545  S
C175        C492   1.506       .  S
C176        C285   1.474       .  S
C177        C315   1.483       .  S
C178        C342   1.508       .  S
C179        C242   1.641       .  S
C179        C255   1.626       .  S
C179        C385   1.636       .  S
C179        C442   1.623       .  S
C180        C222   1.609       .  S
C180        C232   1.626       .  S
C180        C355   1.637       .  S
C180        C435   1.634       .  S
C181        C252   1.503       .  S
C181        C182   1.409       .  A
C181        C186   1.410   1_556  A
C182        C183   1.401   1_556  A
C182        H187   1.083       .  S
C183        C732   1.465       .  S
C183        C184   1.391       .  A
C184        C185   1.389       .  A
C184        H188   1.085       .  S
C185        C235   1.466       .  S
C185        C186   1.408       .  A
C186        H189   1.082   1_554  S
C190        C215   1.635       .  S
C190        C245   1.644       .  S
C190        C272   1.594       .  S
C190        C325   1.657       .  S
C191        C202   1.593       .  S
C191        C225   1.598       .  S
C191        C265   1.622       .  S
C191        C295   1.638       .  S
C192        C205   1.483       .  S
C192        C193   1.407   1_554  A
C192        C197   1.407       .  A
C193        C194   1.407   1_545  A
C193        H198   1.083       .  S
C194        C212   1.496       .  S
C194        C195   1.414       .  A
C195        C196   1.401   1_565  A
C195        H199   1.084       .  S
C196        C545   1.497       .  S
C196        C197   1.398   1_556  A
C197        H200   1.085       .  S
C201        C202   1.441       .  A
C201        C206   1.394       .  A
C201       Br208   1.929       .  S
C202        C203   1.445       .  A
C203        C204   1.422       .  A
C203       Br210   1.919       .  S
C204        C205   1.405       .  A
C204       Br209   1.932   1_554  S
C205        C206   1.395       .  A
C206       Br207   1.938   1_545  S
C211        C212   1.412       .  A
C211        C216   1.435       .  A
C211       Br218   1.936   1_556  S
C212        C213   1.389       .  A
C213        C214   1.389       .  A
C213       Br220   1.941   1_565  S
C214        C215   1.454       .  A
C214       Br219   1.939       .  S
C215        C216   1.446       .  A
C216       Br217   1.915       .  S
C221        C222   1.433       .  A
C221        C226   1.431       .  A
C221       Br228   1.972       .  S
C222        C223   1.435       .  A
C223        C224   1.416       .  A
C223       Br230   1.927       .  S
C224        C225   1.441       .  A
C224       Br229   1.966       .  S
C225        C226   1.445       .  A
C226       Br227   1.947       .  S
C231        C232   1.467       .  A
C231        C236   1.428       .  A
C231       Br238   1.952       .  S
C232        C233   1.417       .  A
C233        C234   1.381       .  A
C233       Br240   1.938       .  S
C234        C235   1.395       .  A
C234       Br239   1.924       .  S
C235        C236   1.405       .  A
C236       Br237   1.936       .  S
C241        C242   1.441       .  A
C241        C246   1.433       .  A
C241       Br248   1.950       .  S
C242        C243   1.451       .  A
C243        C244   1.446       .  A
C243       Br250   1.952       .  S
C244        C245   1.450       .  A
C244       Br249   1.942       .  S
C245        C246   1.436       .  A
C246       Br247   1.920       .  S
C251        C252   1.399       .  A
C251        C256   1.400       .  A
C251       Br258   1.933       .  S
C252        C253   1.406       .  A
C253        C254   1.416       .  A
C253       Br260   1.934   1_556  S
C254        C255   1.464       .  A
C254       Br259   1.948       .  S
C255        C256   1.451       .  A
C256       Br257   1.921       .  S
C261        C262   1.405       .  A
C261        C266   1.420       .  A
C261       Br268   1.947       .  S
C262        C263   1.403       .  A
C263        C264   1.405       .  A
C263       Br270   1.934   1_545  S
C264        C265   1.436       .  A
C264       Br269   1.905       .  S
C265        C266   1.468       .  A
C266       Br267   1.941       .  S
C271        C272   1.454       .  A
C271        C276   1.412       .  A
C271       Br278   1.958       .  S
C272        C273   1.439       .  A
C273        C274   1.413       .  A
C273       Br280   1.918       .  S
C274        C275   1.410       .  A
C274       Br279   1.947       .  S
C275        C276   1.412       .  A
C276       Br277   1.939   1_565  S
C281        C282   1.413   1_665  A
C281        C286   1.404       .  A
C281       Br288   1.927   1_655  S
C282        C283   1.414   1_455  A
C283        C284   1.405       .  A
C283       Br290   1.931   1_655  S
C284        C285   1.411       .  A
C284       Br289   1.934       .  S
C285        C286   1.412   1_545  A
C286       Br287   1.939       .  S
C291        C292   1.428       .  A
C291        C296   1.393       .  A
C291       Br298   1.920       .  S
C292        C293   1.467       .  A
C293        C294   1.439   1_655  A
C293       Br300   1.953       .  S
C294        C295   1.450       .  A
C294       Br299   1.955       .  S
C295        C296   1.426   1_455  A
C296       Br297   1.933   1_655  S
C301        C302   1.444       .  A
C301        C306   1.405       .  A
C301       Br308   1.935       .  S
C302        C303   1.450       .  A
C303        C304   1.409       .  A
C303       Br310   1.936       .  S
C304        C305   1.396       .  A
C304       Br309   1.936   1_545  S
C305        C306   1.397       .  A
C306       Br307   1.934       .  S
C311        C312   1.439       .  A
C311        C316   1.406       .  A
C311       Br318   1.927       .  S
C312        C313   1.469       .  A
C313        C314   1.420       .  A
C313       Br320   1.949       .  S
C314        C315   1.394       .  A
C314       Br319   1.943       .  S
C315        C316   1.399       .  A
C316       Br317   1.936       .  S
C321        C322   1.412       .  A
C321        C326   1.409       .  A
C321       Br328   1.919       .  S
C322        C323   1.460       .  A
C323        C324   1.458   1_655  A
C323       Br330   1.965       .  S
C324        C325   1.480       .  A
C324       Br329   1.973       .  S
C325        C326   1.417   1_455  A
C326       Br327   1.896       .  S
C331        C332   1.448       .  A
C331        C336   1.391       .  A
C331       Br338   1.951       .  S
C332        C333   1.439       .  A
C333        C334   1.423       .  A
C333       Br340   1.932       .  S
C334        C335   1.409       .  A
C334       Br339   1.933   1_556  S
C335        C336   1.394       .  A
C336       Br337   1.939   1_565  S
C341        C342   1.413       .  A
C341        C346   1.422       .  A
C341       Br348   1.953       .  S
C342        C343   1.415       .  A
C343        C344   1.412       .  A
C343       Br350   1.942   1_565  S
C344        C345   1.448       .  A
C344       Br349   1.954       .  S
C345        C346   1.454       .  A
C346       Br347   1.939       .  S
C351        C352   1.429       .  A
C351        C356   1.415       .  A
C351       Br358   1.929       .  S
C352        C353   1.444       .  A
C353        C354   1.425   1_655  A
C353       Br360   1.922       .  S
C354        C355   1.446       .  A
C354       Br359   1.954       .  S
C355        C356   1.443   1_455  A
C356       Br357   1.914   1_655  S
C361        C362   1.455       .  A
C361        C366   1.432       .  A
C361       Br368   1.934       .  S
C362        C363   1.445       .  A
C363        C364   1.414       .  A
C363       Br370   1.944       .  S
C364        C365   1.429       .  A
C364       Br369   1.923       .  S
C365        C366   1.430       .  A
C366       Br367   1.943       .  S
C371        C372   1.451       .  A
C371        C376   1.405       .  A
C371       Br378   1.939       .  S
C372        C373   1.441       .  A
C373        C374   1.417       .  A
C373       Br380   1.934       .  S
C374        C375   1.405       .  A
C374       Br379   1.933       .  S
C375        C376   1.395       .  A
C376       Br377   1.939       .  S
C381        C382   1.439       .  A
C381        C386   1.423   1_655  A
C381       Br388   1.933       .  S
C382        C383   1.443       .  A
C383        C384   1.448   1_655  A
C383       Br390   1.950       .  S
C384        C385   1.463       .  A
C384       Br389   1.946       .  S
C385        C386   1.441       .  A
C386       Br387   1.957       .  S
C391        C392   1.406       .  A
C391        C396   1.413       .  A
C391       Br398   1.945       .  S
C392        C393   1.446       .  A
C393        C394   1.434       .  A
C393       Br400   1.933       .  S
C394        C395   1.428       .  A
C394       Br399   1.933       .  S
C395        C396   1.460       .  A
C396       Br397   1.930       .  S
C401        C402   1.465       .  A
C401        C406   1.416       .  A
C401       Br408   1.928       .  S
C402        C403   1.466       .  A
C403        C404   1.425       .  A
C403       Br410   1.934       .  S
C404        C405   1.396       .  A
C404       Br409   1.944       .  S
C405        C406   1.389       .  A
C406       Br407   1.949       .  S
C411        C412   1.403       .  A
C411        C416   1.405       .  A
C411       Br418   1.933       .  S
C412        C413   1.399       .  A
C413        C414   1.419       .  A
C413       Br420   1.933       .  S
C414        C415   1.442       .  A
C414       Br419   1.925       .  S
C415        C416   1.447       .  A
C416       Br417   1.951       .  S
C421        C422   1.406       .  A
C421        C426   1.413       .  A
C421       Br428   1.933       .  S
C422        C423   1.403       .  A
C423        C424   1.411       .  A
C423       Br430   1.946       .  S
C424        C425   1.454       .  A
C424       Br429   1.907       .  S
C425        C426   1.454       .  A
C426       Br427   1.943       .  S
C431        C432   1.397       .  A
C431        C436   1.423       .  A
C431       Br438   1.944       .  S
C432        C433   1.384       .  A
C433        C434   1.417       .  A
C433       Br440   1.953       .  S
C434        C435   1.471       .  A
C434       Br439   1.937       .  S
C435        C436   1.462       .  A
C436       Br437   1.944       .  S
C441        C442   1.459       .  A
C441        C446   1.415       .  A
C441       Br448   1.933       .  S
C442        C443   1.452       .  A
C443        C444   1.421       .  A
C443       Br450   1.935       .  S
C444        C445   1.405       .  A
C444       Br449   1.941       .  S
C445        C446   1.396       .  A
C446       Br447   1.952       .  S
C451        C452   1.413       .  A
C451        C456   1.401   1_455  A
C451       Br458   1.938       .  S
C452        C453   1.413       .  A
C453        C454   1.401   1_455  A
C453       Br460   1.938       .  S
C454        C455   1.412       .  A
C454       Br459   1.939       .  S
C455        C456   1.412       .  A
C456       Br457   1.937       .  S
C461        C462   1.401       .  A
C461        C466   1.408       .  A
C461       Br468   1.936       .  S
C462        C463   1.400       .  A
C463        C464   1.407       .  A
C463       Br470   1.937       .  S
C464        C465   1.431       .  A
C464       Br469   1.939       .  S
C465        C466   1.430       .  A
C466       Br467   1.938       .  S
C471        C472   1.452       .  A
C471        C476   1.421       .  A
C471       Br478   1.901       .  S
C472        C473   1.445       .  A
C473        C474   1.406       .  A
C473       Br480   1.939       .  S
C474        C475   1.396       .  A
C474       Br479   1.934       .  S
C475        C476   1.397       .  A
C476       Br477   1.946       .  S
C481        C482   1.452       .  A
C481        C486   1.416       .  A
C481       Br488   1.906       .  S
C482        C483   1.454       .  A
C483        C484   1.421       .  A
C483       Br490   1.911       .  S
C484        C485   1.390       .  A
C484       Br489   1.946       .  S
C485        C486   1.390       .  A
C486       Br487   1.943       .  S
C491        C492   1.425   1_565  A
C491        C496   1.413       .  A
C491       Br498   1.936       .  S
C492        C493   1.421       .  A
C493        C494   1.412       .  A
C493       Br500   1.936       .  S
C494        C495   1.411       .  A
C494       Br499   1.929       .  S
C495        C496   1.409   1_545  A
C496       Br497   1.934       .  S
C501        C502   1.424       .  A
C501        C506   1.445       .  A
C501       Br508   1.930       .  S
C502        C503   1.412       .  A
C503        C504   1.369       .  A
C503       Br510   1.914       .  S
C504        C505   1.432       .  A
C504       Br509   1.932       .  S
C505        C506   1.452       .  A
C506       Br507   1.924       .  S
C511        C512   1.458       .  A
C511        C516   1.408       .  A
C511       Br518   1.924       .  S
C512        C513   1.458       .  A
C513        C514   1.418       .  A
C513       Br520   1.908       .  S
C514        C515   1.393       .  A
C514       Br519   1.945       .  S
C515        C516   1.389       .  A
C516       Br517   1.941   1_545  S
C521        C522   1.472       .  A
C521        C526   1.463       .  A
C521       Br528   1.948       .  S
C522        C523   1.458       .  A
C523        C524   1.408       .  A
C523       Br530   1.957       .  S
C524        C525   1.406       .  A
C524       Br529   1.953       .  S
C525        C526   1.432       .  A
C526       Br527   1.937       .  S
C531        C532   1.391       .  A
C531        C536   1.388       .  A
C531       Br538   1.933   1_565  S
C532        C533   1.410       .  A
C533        C534   1.426       .  A
C533       Br540   1.926       .  S
C534        C535   1.448       .  A
C534       Br539   1.932       .  S
C535        C536   1.444       .  A
C536       Br537   1.923       .  S
C541        C542   1.420       .  A
C541        C546   1.412       .  A
C541       Br548   1.935       .  S
C542        C543   1.420   1_546  A
C543        C544   1.412       .  A
C543       Br550   1.934       .  S
C544        C545   1.412   1_564  A
C544       Br549   1.934       .  S
C545        C546   1.413       .  A
C546       Br547   1.934       .  S
C551        C552   1.411       .  A
C551        C556   1.410       .  A
C551       Br558   1.933       .  S
C552        C553   1.413   1_565  A
C553        C554   1.407       .  A
C553       Br560   1.930   1_554  S
C554        C555   1.417   1_545  A
C554       Br559   1.937       .  S
C555        C556   1.418       .  A
C556       Br557   1.933       .  S
C561        C562   1.408       .  A
C561        C566   1.420       .  A
C561       Br568   1.946       .  S
C562        C563   1.400       .  A
C563        C564   1.418       .  A
C563       Br570   1.946       .  S
C564        C565   1.460       .  A
C564       Br569   1.949       .  S
C565        C566   1.446       .  A
C566       Br567   1.922       .  S
C571        C572   1.421       .  A
C571        C576   1.385       .  A
C571       Br578   1.915       .  S
C572        C573   1.460       .  A
C573        C574   1.425       .  A
C573       Br580   1.947       .  S
C574        C575   1.399       .  A
C574       Br579   1.929       .  S
C575        C576   1.390       .  A
C576       Br577   1.911       .  S
C581        C582   1.413       .  A
C581        C586   1.405       .  A
C581       Br588   1.938       .  S
C582        C583   1.413   1_546  A
C583        C584   1.404       .  A
C583       Br590   1.937       .  S
C584        C585   1.416   1_564  A
C584       Br589   1.939       .  S
C585        C586   1.417       .  A
C586       Br587   1.939       .  S
C591        C592   1.410       .  A
C591        C596   1.412       .  A
C591       Br598   1.932       .  S
C592        C593   1.411   1_545  A
C593        C594   1.411       .  A
C593       Br600   1.933       .  S
C594        C595   1.417   1_565  A
C594       Br599   1.933       .  S
C595        C596   1.419       .  A
C596       Br597   1.934       .  S
C601        C602   1.459       .  A
C601        C606   1.450       .  A
C601       Br608   1.946       .  S
C602        C603   1.424       .  A
C603        C604   1.402       .  A
C603       Br610   1.941       .  S
C604        C605   1.438       .  A
C604       Br609   1.934       .  S
C605        C606   1.448       .  A
C606       Br607   1.948       .  S
C611        C612   1.394       .  A
C611        C616   1.408       .  A
C611       Br618   1.941       .  S
C612        C613   1.400       .  A
C613        C614   1.417       .  A
C613       Br620   1.941   1_545  S
C614        C615   1.447       .  A
C614       Br619   1.917       .  S
C615        C616   1.444       .  A
C616       Br617   1.916       .  S
C621        C622   1.409       .  A
C621        C626   1.422       .  A
C621       Br628   1.942       .  S
C622        C623   1.400       .  A
C623        C624   1.415       .  A
C623       Br630   1.944       .  S
C624        C625   1.455       .  A
C624       Br629   1.943       .  S
C625        C626   1.447       .  A
C626       Br627   1.927       .  S
C631        C632   1.419       .  A
C631        C636   1.430       .  A
C631       Br638   1.939       .  S
C632        C633   1.456       .  A
C633        C634   1.432       .  A
C633       Br640   1.953       .  S
C634        C635   1.456       .  A
C634       Br639   1.946       .  S
C635        C636   1.452       .  A
C636       Br637   1.896       .  S
C641        C642   1.397       .  A
C641        C646   1.412       .  A
C641       Br648   1.937   1_565  S
C642        C643   1.398       .  A
C643        C644   1.414       .  A
C643       Br650   1.943       .  S
C644        C645   1.443       .  A
C644       Br649   1.905       .  S
C645        C646   1.453       .  A
C646       Br647   1.938       .  S
C651        C652   1.433       .  A
C651        C656   1.419       .  A
C651       Br658   1.909       .  S
C652        C653   1.461       .  A
C653        C654   1.414       .  A
C653       Br660   1.951       .  S
C654        C655   1.399       .  A
C654       Br659   1.942       .  S
C655        C656   1.409       .  A
C656       Br657   1.942       .  S
C661        C662   1.404       .  A
C661        C666   1.404       .  A
C661       Br668   1.935       .  S
C662        C663   1.405       .  A
C663        C664   1.406       .  A
C663       Br670   1.932       .  S
C664        C665   1.418       .  A
C664       Br669   1.933       .  S
C665        C666   1.421       .  A
C666       Br667   1.937       .  S
C671        C672   1.426       .  A
C671        C676   1.420       .  A
C671       Br678   1.930       .  S
C672        C673   1.425       .  A
C673        C674   1.433       .  A
C673       Br680   1.915       .  S
C674        C675   1.451       .  A
C674       Br679   1.931       .  S
C675        C676   1.443       .  A
C676       Br677   1.929       .  S
C681        C682   1.438       .  A
C681        C686   1.425       .  A
C681       Br688   1.956       .  S
C682        C683   1.442       .  A
C683        C684   1.445       .  A
C683       Br690   1.934       .  S
C684        C685   1.447       .  A
C684       Br689   1.948       .  S
C685        C686   1.453       .  A
C686       Br687   1.943       .  S
C691        C692   1.447       .  A
C691        C696   1.422       .  A
C691       Br698   1.923       .  S
C692        C693   1.423       .  A
C693        C694   1.393       .  A
C693       Br700   1.931       .  S
C694        C695   1.399       .  A
C694       Br699   1.934       .  S
C695        C696   1.411       .  A
C696       Br697   1.943       .  S
C701        C702   1.442       .  A
C701        C706   1.450       .  A
C701       Br708   1.953       .  S
C702        C703   1.435       .  A
C703        C704   1.402       .  A
C703       Br710   1.923       .  S
C704        C705   1.414       .  A
C704       Br709   1.937       .  S
C705        C706   1.473       .  A
C706       Br707   1.959       .  S
C711        C712   1.424       .  A
C711        C716   1.395       .  A
C711       Br718   1.918       .  S
C712        C713   1.443       .  A
C713        C714   1.450       .  A
C713       Br720   1.928       .  S
C714        C715   1.456       .  A
C714       Br719   1.929       .  S
C715        C716   1.408       .  A
C716       Br717   1.909       .  S
C721        C722   1.446       .  A
C721        C726   1.415       .  A
C721       Br728   1.901       .  S
C722        C723   1.454       .  A
C723        C724   1.417       .  A
C723       Br730   1.925       .  S
C724        C725   1.398       .  A
C724       Br729   1.942       .  S
C725        C726   1.397       .  A
C726       Br727   1.950       .  S
C731        C732   1.402       .  A
C731        C736   1.405       .  A
C731       Br738   1.931       .  S
C732        C733   1.405   1_554  A
C733        C734   1.400       .  A
C733       Br740   1.932       .  S
C734        C735   1.416   1_556  A
C734       Br739   1.936       .  S
C735        C736   1.420       .  A
C736       Br737   1.934       .  S
C741        C742   1.405       .  A
C741        C746   1.386       .  A
C741       Br748   1.920       .  S
C742        C743   1.412       .  A
C743        C744   1.432       .  A
C743       Br750   1.930       .  S
C744        C745   1.442       .  A
C744       Br749   1.913       .  S
C745        C746   1.410       .  A
C746       Br747   1.927       .  S
C751        C752   1.409       .  A
C751        C756   1.411       .  A
C751       Br758   1.945       .  S
C752        C753   1.410       .  A
C753        C754   1.416       .  A
C753       Br760   1.933       .  S
C754        C755   1.453       .  A
C754       Br759   1.942       .  S
C755        C756   1.442       .  A
C756       Br757   1.893       .  S
C761        C762   1.406   1_554  A
C761        C766   1.408       .  A
C761       Br768   1.931       .  S
C762        C763   1.407       .  A
C763        C764   1.408       .  A
C763       Br770   1.932       .  S
C764        C765   1.423       .  A
C764       Br769   1.936       .  S
C765        C766   1.425   1_556  A
C766       Br767   1.938       .  S
C771        C772   1.401       .  A
C771        C776   1.423       .  A
C771       Br778   1.940       .  S
C772        C773   1.406       .  A
C773        C774   1.410       .  A
C773       Br780   1.945       .  S
C774        C775   1.448       .  A
C774       Br779   1.933       .  S
C775        C776   1.462       .  A
C776       Br777   1.935       .  S
C781        C782   1.403       .  A
C781        C786   1.412       .  A
C781       Br788   1.931       .  S
C782        C783   1.405       .  A
C783        C784   1.411       .  A
C783       Br790   1.937       .  S
C784        C785   1.455       .  A
C784       Br789   1.958       .  S
C785        C786   1.440       .  A
C786       Br787   1.935       .  S
C791        C792   1.407       .  A
C791        C796   1.398       .  A
C791       Br798   1.921       .  S
C792        C793   1.412   1_556  A
C793        C794   1.401       .  A
C793       Br800   1.935       .  S
C794        C795   1.410   1_554  A
C794       Br799   1.935       .  S
C795        C796   1.409       .  A
C796       Br797   1.938       .  S
