geometry optimzed in LAMMPS
_audit_creation_date              2020-12-01 
_audit_creation_method            'lammps2cif' 
_symmetry_space_group_name_H-M    'P1' 
_symmetry_Int_Tables_number       1 
_symmetry_cell_setting            triclinic 
loop_ 
_symmetry_equiv_pos_as_xyz 
  x,y,z 
_cell_length_a                    37.13547598 
_cell_length_b                    28.298969674447548 
_cell_length_c                    38.15821962409148 
_cell_angle_alpha                 89.45292485703281 
_cell_angle_beta                  92.51370968332262 
_cell_angle_gamma                 90.01424358139015 
loop_ 
_atom_site_label 
_atom_site_type_symbol 
_atom_site_fract_x 
_atom_site_fract_y 
_atom_site_fract_z 
_atom_site_charge 
C1          C  0.77060129  0.10137916  0.42152636     0.29900
C2          C  0.81355374  0.04836386  0.38181430     0.29900
C3          C  0.79272077  0.12984888  0.39443399    -0.06300
C4          C  0.79844177  0.07076987  0.44111886    -0.07100
C5          C  0.75012819  0.06522388  0.39806171    -0.07000
C6          C  0.81713915  0.10336623  0.37672600    -0.06300
C7          C  0.82096686  0.04305209  0.42194299    -0.07100
C8          C  0.77201939  0.03837104  0.37759560    -0.07000
C9          C  0.83379457  0.13465681  0.35387278    -0.32400
N10         N  0.81452670  0.17512595  0.35033220     0.14100
C11         C  0.78869070  0.17192063  0.37467990    -0.32400
H12         H  0.76692337  0.19688122  0.37616666     0.16100
C13         C  0.84443854  0.02104381  0.44688269    -0.31400
N14         N  0.83561120  0.03573208  0.47956031     0.12800
C15         C  0.80739295  0.06535578  0.47579120    -0.31400
C16         C  0.75058612  0.50904366  0.35979223    -0.31700
N17         N  0.71563866  0.51645379  0.36798862     0.13300
H18         H  0.75882488  0.48396577  0.34054310     0.16000
C19         C  0.71473072  0.05075358  0.39062784    -0.31700
H20         H  0.69063178  0.06559953  0.40067659     0.16000
H21         H  0.79473546  0.08283633  0.49719362     0.16000
H22         H  0.85671749  0.12742506  0.33839052     0.16000
H23         H  0.86895060  0.50354382  0.44277261     0.16000
O24         O  0.68302037  0.25668248  0.39340853    -0.81900
C25         C  0.61446177  0.21927735  0.26358125     0.97400
O26         O  0.64022591  0.19356067  0.27626236    -0.71100
O27         O  0.69941215  0.23382916  0.29661299    -0.74700
Al28       Al  0.66812846  0.19588850  0.32106291     1.49000
C29         C  0.71842789  0.26840482  0.30573319     0.92700
O30         O  0.65123447  0.32763363  0.32078609    -0.80900
O31         O  0.59142751  0.24191422  0.37960888    -0.74400
Al32       Al  0.66662606  0.29113943  0.35684754     1.90100
O33         O  0.59381974  0.31821547  0.32969748    -0.73500
O34         O  0.58780286  0.17598428  0.32337906    -0.73400
O35         O  0.59930559  0.24977291  0.28194617    -0.79000
O36         O  0.64000442  0.15092755  0.34220589    -0.77200
O37         O  0.64386723  0.24340401  0.33594177    -1.13300
O38         O  0.69698220  0.19211392  0.36479020    -0.72500
C39         C  0.69451277  0.21573081  0.39304881     0.98200
C40         C  0.62052087  0.34461298  0.32189770     0.94600
Al41       Al  0.59603894  0.24612719  0.32968740     1.55600
O42         O  0.71244188  0.28923992  0.33381996    -0.77200
C43         C  0.61037327  0.14217752  0.32723386     0.98700
C44         C  0.60653552  0.27275914  0.39937656     0.93600
O45         O  0.62679560  0.30392754  0.38636312    -0.82500
C46         C  0.66421597  0.35011548  0.10654643     0.29900
C47         C  0.62571069  0.28647064  0.14264292     0.29900
C48         C  0.64535551  0.37075946  0.13841766    -0.06300
C49         C  0.63304901  0.32657204  0.08665475    -0.07100
C50         C  0.68693667  0.30845102  0.12371046    -0.07000
C51         C  0.62538555  0.33867549  0.15728179    -0.06300
C52         C  0.61466248  0.29192849  0.10366115    -0.07100
C53         C  0.66700917  0.27602561  0.14233615    -0.07000
C54         C  0.61563419  0.36301452  0.18755872    -0.32400
N55         N  0.62781870  0.40871236  0.18649798     0.14100
C56         C  0.64749964  0.41233446  0.15752196    -0.32400
H57         H  0.66513263  0.44122411  0.15317620     0.16100
C58         C  0.59870834  0.26381034  0.07730240    -0.31400
N59         N  0.60463019  0.28444428  0.04562097     0.12800
C60         C  0.62409162  0.32416450  0.05192789    -0.31400
C61         C  0.69163783  0.24955621  0.16326204    -0.31700
N62         N  0.72594170  0.26355367  0.15759297     0.13300
H63         H  0.68511807  0.22460480  0.18356877     0.16000
C64         C  0.72316741  0.30096659  0.13486244    -0.31700
H65         H  0.74577542  0.32324096  0.12915275     0.16000
H66         H  0.63596884  0.34579391  0.03188992     0.16000
H67         H  0.60318908  0.34747955  0.21005670     0.16000
H68         H  0.58743315  0.22890363  0.08077997     0.16000
O69         O  0.75995605  0.50571441  0.13391316    -0.81900
C70         C  0.83437033  0.47104756  0.26347180     0.97400
O71         O  0.80723681  0.44629824  0.25325747    -0.71100
O72         O  0.74961760  0.49589009  0.23629151    -0.74700
Al73       Al  0.77502458  0.45283548  0.21029422     1.49000
C74         C  0.72538886  0.02352263  0.22323713     0.92700
O75         O  0.79007369  0.08479233  0.20009498    -0.80900
O76         O  0.85026241  0.49488390  0.14620720    -0.74400
Al77       Al  0.77515560  0.04401766  0.16737448     1.90100
O78         O  0.84803631  0.07140332  0.19523600    -0.73500
O79         O  0.85330632  0.42874519  0.20077607    -0.73400
O80         O  0.84549118  0.00182281  0.24319385    -0.79000
O81         O  0.79867163  0.40580345  0.18686881    -0.77200
O82         O  0.79936956  0.49795753  0.19114034    -1.13300
O83         O  0.74021476  0.45069566  0.17004347    -0.72500
C84         C  0.74257352  0.46939168  0.13946388     0.98200
C85         C  0.82166770  0.09905529  0.20194425     0.94600
Al86       Al  0.84583411  0.99922324  0.19527675     1.55600
O87         O  0.72927715  0.04085530  0.19278898    -0.77200
C88         C  0.82968533  0.39583478  0.19847337     0.98700
C89         C  0.83719803  0.02621877  0.12523150     0.93600
O90         O  0.81455211  0.05654806  0.13544332    -0.82500
O91         O  0.56503644  0.52456474  0.26199397    -0.81900
C92         C  0.68386962  0.49544895  0.35059417     0.97400
O93         O  0.65290845  0.51309885  0.35357032    -0.71100
O94         O  0.59602947  0.06088285  0.32854006    -0.74700
Al95       Al  0.60841114  0.49424602  0.32892016     1.49000
C96         C  0.60649006  0.09492846  0.31003861     0.92700
O97         O  0.66184250  0.03924356  0.23131257    -0.80900
O98         O  0.66004510  0.44285798  0.23382582    -0.74400
Al99       Al  0.61326131  0.02960490  0.25125805     1.90100
O100        O  0.69676664  0.51032537  0.27457571    -0.73500
O101        O  0.63999390  0.40504359  0.28943678    -0.73400
O102        O  0.68702576  0.46083274  0.33041858    -0.79000
O103        O  0.61373897  0.42617009  0.33712622    -0.77200
O104        O  0.62982004  0.49392905  0.28775415    -1.13100
O105        O  0.56276773  0.47879126  0.30871484    -0.72500
C106        C  0.54740137  0.49945515  0.28278930     0.98200
C107        C  0.69294927  0.02826955  0.24424869     0.94600
Al108      Al  0.66781421  0.45773143  0.28280330     1.55600
O109        O  0.61876606  0.08741377  0.27958890    -0.77200
C110        C  0.62110343  0.39494681  0.31480686     0.98700
C111        C  0.63107080  0.44211534  0.21538900     0.93600
O112        O  0.60672835  0.47250761  0.22135424    -0.82500
O113        O  0.87763919  0.28025653  0.26503841    -0.81900
C114        C  0.75835312  0.24680508  0.17721564     0.97400
O115        O  0.78842385  0.26728349  0.17454694    -0.71100
O116        O  0.84552809  0.31493652  0.19809816    -0.74700
Al117      Al  0.83367447  0.24891663  0.19879584     1.49000
C118        C  0.83401541  0.34860541  0.21570221     0.92700
O119        O  0.77919699  0.29365237  0.29499355    -0.80900
O120        O  0.78548940  0.19591650  0.29639819    -0.74400
Al121      Al  0.82760577  0.28465432  0.27554603     1.90100
O122        O  0.74644046  0.25991049  0.25367530    -0.73500
O123        O  0.80643788  0.15694675  0.23942680    -0.73400
O124        O  0.75666680  0.21199166  0.19826152    -0.79000
O125        O  0.82843666  0.18134641  0.19014494    -0.77200
O126        O  0.81320903  0.24750733  0.24051732    -1.13300
O127        O  0.87908964  0.23365305  0.21905426    -0.72500
C128        C  0.89480843  0.25431307  0.24455189     0.98200
C129        C  0.74875226  0.27870021  0.28322334     0.94600
Al130      Al  0.77678395  0.20907224  0.24630112     1.55600
O131        O  0.82116792  0.34080764  0.24576945    -0.77200
C132        C  0.82288646  0.14842985  0.21208273     0.98700
C133        C  0.81197850  0.20278886  0.31771807     0.93600
O134        O  0.83608296  0.23242228  0.30949647    -0.82500
C135        C  0.17407342  0.08275849  0.09527527     0.29900
C136        C  0.13815384  0.01881790  0.13380481     0.29900
C137        C  0.15279630  0.10396080  0.12597865    -0.06300
C138        C  0.14473348  0.05367413  0.07528943    -0.07100
C139        C  0.19826125  0.04360995  0.11364721    -0.07000
C140        C  0.13308766  0.07134750  0.14360219    -0.06300
C141        C  0.12563955  0.01997026  0.09434698    -0.07100
C142        C  0.17895677  0.00919884  0.12984731    -0.07000
C143        C  0.11545397  0.09474150  0.16985262    -0.32400
N144        N  0.12587145  0.14066131  0.17106769     0.14100
C145        C  0.14939474  0.14634893  0.14481755    -0.32400
H146        H  0.16595232  0.17646927  0.14337391     0.16100
C147        C  0.10280207  0.99754426  0.06945255    -0.31400
N148        N  0.10760616  0.01783456  0.03713272     0.12800
C149        C  0.13311511  0.05173484  0.04093347    -0.31400
C150        C  0.20450406  0.47351759  0.14794798    -0.31700
N151        N  0.23780632  0.49253888  0.14761653     0.13300
H152        H  0.19805421  0.44253688  0.16327286     0.16000
C153        C  0.23425902  0.03589069  0.12605364    -0.31700
H154        H  0.25635897  0.06035883  0.12410042     0.16000
H155        H  0.14324940  0.07290270  0.01972149     0.16000
H156        H  0.09958388  0.07775078  0.18961110     0.16000
H157        H  0.08541091  0.46191392  0.07759775     0.16000
O158        O  0.26240708  0.24129762  0.12902941    -0.81900
C159        C  0.33176103  0.21762264  0.26146648     0.97400
O160        O  0.30250925  0.19695160  0.25241900    -0.71100
O161        O  0.25046143  0.25239761  0.23114536    -0.74700
Al162      Al  0.27208472  0.19989894  0.21010932     1.49000
C163        C  0.22471901  0.27135175  0.21440961     0.92700
O164        O  0.29381400  0.32731735  0.18995895    -0.80900
O165        O  0.35054081  0.22675255  0.14418753    -0.74400
Al166      Al  0.27822946  0.28325322  0.16035094     1.90100
O167        O  0.35165954  0.30731958  0.19003573    -0.73500
O168        O  0.34901037  0.16470908  0.20211053    -0.73400
O169        O  0.34705656  0.24480203  0.24076137    -0.79000
O170        O  0.29241699  0.14436131  0.19412634    -0.77200
O171        O  0.29939464  0.23836533  0.18761410    -1.13300
O172        O  0.23828078  0.19398670  0.16839578    -0.72500
C173        C  0.24297794  0.20743960  0.13656925     0.98200
C174        C  0.32636023  0.33761971  0.19459048     0.94600
Al175      Al  0.34655992  0.23594147  0.19307614     1.55600
O176        O  0.23009737  0.28445271  0.18311177    -0.77200
C177        C  0.32396953  0.13339916  0.20411560     0.98700
C178        C  0.34079541  0.25850164  0.12223743     0.93600
O179        O  0.31899305  0.29075234  0.13052082    -0.82500
C180        C  0.26885039  0.31736582  0.41451326     0.29900
C181        C  0.31652734  0.26336255  0.38093689     0.29900
C182        C  0.29185374  0.34461286  0.38764136    -0.06300
C183        C  0.29681822  0.29172068  0.43740814    -0.07100
C184        C  0.25134969  0.27748561  0.39194672    -0.07000
C185        C  0.31637161  0.31729149  0.37039115    -0.06300
C186        C  0.32122861  0.26410689  0.42094547    -0.07100
C187        C  0.27570506  0.25002623  0.37435652    -0.07000
C188        C  0.32876853  0.34610635  0.34326547    -0.32400
N189        N  0.31418902  0.39037961  0.34453488     0.14100
C190        C  0.29039244  0.38875167  0.37078815    -0.32400
H191        H  0.27079110  0.41612971  0.37515579     0.16100
C192        C  0.34484484  0.24612744  0.44698288    -0.31400
N193        N  0.33459217  0.26313865  0.47824035     0.12800
C194        C  0.30529074  0.29077547  0.47250147    -0.31400
C195        C  0.25495653  0.22293951  0.35061489    -0.31700
N196        N  0.21918030  0.23089781  0.35465074     0.13300
H197        H  0.26493482  0.20102605  0.33019991     0.16000
C198        C  0.21680749  0.26545100  0.37896211    -0.31700
H199        H  0.19198684  0.28345313  0.38426297     0.16000
H200        H  0.29156224  0.30958117  0.49259685     0.16000
H201        H  0.34423851  0.33439068  0.32180176     0.16000
H202        H  0.36806072  0.22385773  0.44345118     0.16000
O203        O  0.17506704  0.47783305  0.39798870    -0.81900
C204        C  0.12001764  0.42767446  0.26401483     0.97400
O205        O  0.14251543  0.40282426  0.28231627    -0.71100
O206        O  0.20005926  0.44525563  0.30371973    -0.74700
Al207      Al  0.16554072  0.41092459  0.32818608     1.49000
C208        C  0.21470432  0.98596616  0.30899021     0.92700
O209        O  0.14838739  0.04602032  0.31777164    -0.80900
O210        O  0.08260621  0.46363112  0.37363437    -0.74400
Al211      Al  0.15947126  0.01113172  0.35648666     1.90100
O212        O  0.09033027  0.03818485  0.31944596    -0.73500
O213        O  0.08500404  0.39353314  0.32127214    -0.73400
O214        O  0.10067550  0.96226311  0.27505094    -0.79000
O215        O  0.13322160  0.37047275  0.34997659    -0.77200
O216        O  0.14024707  0.46094799  0.33690166    -1.13300
O217        O  0.19132570  0.41174275  0.37303759    -0.72500
C218        C  0.18754157  0.43709498  0.40004583     0.98200
C219        C  0.11817041  0.06423176  0.31429192     0.94600
Al220      Al  0.09305572  0.46379769  0.32482288     1.55600
O221        O  0.20699724  0.00787098  0.33636208    -0.77200
C222        C  0.10669672  0.36020651  0.33014094     0.98700
C223        C  0.09360566  0.99623305  0.39268863     0.93600
O224        O  0.11649050  0.02613759  0.38210821    -0.82500
O225        O  0.06726675  0.24081492  0.24394752    -0.81900
C226        C  0.18988886  0.21332852  0.33169665     0.97400
O227        O  0.15811339  0.20643538  0.34287528    -0.71100
O228        O  0.11587854  0.27788564  0.32881684    -0.74700
Al229      Al  0.11020370  0.21384311  0.31767018     1.49000
C230        C  0.10814752  0.31405864  0.31082961     0.92700
O231        O  0.16444690  0.28517380  0.23686816    -0.80900
O232        O  0.13407399  0.14833010  0.23149389    -0.74400
Al233      Al  0.11558327  0.25995613  0.24285141     1.90100
O234        O  0.18612014  0.21409225  0.23163969    -0.73500
O235        O  0.15148090  0.12917462  0.29708796    -0.73400
O236        O  0.19613463  0.20547115  0.29993701    -0.79000
O237        O  0.09808156  0.14649826  0.31286532    -0.77200
O238        O  0.12966877  0.21813597  0.27572227    -1.13300
O239        O  0.06208326  0.22459031  0.30003214    -0.72500
C240        C  0.04804298  0.23288135  0.26982161     0.98200
C241        C  0.18910204  0.25779296  0.22709274     0.94600
Al242      Al  0.16398137  0.17768698  0.26606236     1.55600
O243        O  0.10623394  0.31156025  0.27720421    -0.77200
C244        C  0.12109911  0.11568713  0.30658980     0.98700
C245        C  0.12573920  0.16892983  0.20280769     0.93600
O246        O  0.12083222  0.21405128  0.20241486    -0.82500
O247        O  0.37439864  0.51705436  0.27265554    -0.81900
C248        C  0.26678902  0.47956070  0.17296739     0.97400
O249        O  0.29559150  0.50322072  0.17495411    -0.71100
O250        O  0.34580218  0.05393323  0.20533036    -0.74700
Al251      Al  0.33811926  0.48672246  0.20283162     1.49000
C252        C  0.32905699  0.08532533  0.22127425     0.92700
O253        O  0.27276524  0.01928177  0.29691423    -0.80900
O254        O  0.28736319  0.41651375  0.29166872    -0.74400
Al255      Al  0.32181430  0.01640026  0.27895589     1.90100
O256        O  0.24387467  0.47939843  0.25578234    -0.73500
O257        O  0.31392871  0.38992479  0.23591529    -0.73400
O258        O  0.26239104  0.44573749  0.19472421    -0.79000
O259        O  0.33600034  0.42038979  0.18904754    -0.77200
O260        O  0.31349025  0.47984671  0.24249064    -1.13300
O261        O  0.38193448  0.47239938  0.22650604    -0.72500
C262        C  0.39458055  0.49402349  0.25297792     0.98200
C263        C  0.24364030  0.00061108  0.28528532     0.94600
Al264      Al  0.27970417  0.43641597  0.24387929     1.55600
O265        O  0.31373021  0.07452385  0.24991636    -0.77200
C266        C  0.33010177  0.38481255  0.20828911     0.98700
C267        C  0.31174844  0.42351623  0.31490858     0.93600
O268        O  0.33292455  0.45893308  0.31171988    -0.82500
C269        C  0.25876890  0.39247002  0.44590005    -0.12400
C270        C  0.24600971  0.34726908  0.43704328     0.04600
C271        C  0.20990782  0.33634977  0.44370577    -0.07700
C272        C  0.18543294  0.37377654  0.44169204    -0.08400
C273        C  0.19869480  0.41893446  0.43438999    -0.03000
C274        C  0.23422905  0.42947593  0.44542318     0.03800
N275        N  0.24715823  0.47701544  0.44610912     0.66300
H276        H  0.28735326  0.40033423  0.44649174     0.15200
H277        H  0.15676999  0.36675424  0.43909498     0.14900
N278        N  0.19849665  0.28916615  0.45224296     0.74000
O279        O  0.25845576  0.49415371  0.47492988    -0.39400
O280        O  0.25477816  0.49751080  0.41786874    -0.39400
O281        O  0.22092711  0.25975511  0.46539889    -0.40100
O282        O  0.16543261  0.27857408  0.45101020    -0.40100
C283        C  0.37169822  0.25272079  0.34685820    -0.12400
C284        C  0.34434185  0.23134691  0.36542930     0.04600
C285        C  0.33352212  0.18590429  0.35464724    -0.07700
C286        C  0.33273342  0.17705267  0.31879027    -0.08400
C287        C  0.34777571  0.21072535  0.29667664    -0.03000
C288        C  0.37336372  0.24275058  0.31130562     0.03800
N289        N  0.39838958  0.26771166  0.29047341     0.66300
H290        H  0.38619860  0.28292690  0.35752409     0.15200
H291        H  0.31769554  0.14721265  0.30820769     0.14900
N292        N  0.31906814  0.15255792  0.37877984     0.74000
O293        O  0.39121404  0.30900520  0.27951891    -0.39400
O294        O  0.43026632  0.25254832  0.28937681    -0.39400
O295        O  0.29188327  0.12792734  0.36990239    -0.40100
O296        O  0.33753806  0.14134366  0.40614473    -0.40100
C297        C  0.36052697  0.29824752  0.03117097    -0.12400
C298        C  0.35004421  0.25784289  0.01240490     0.04600
C299        C  0.34541381  0.21490057  0.03051524    -0.07700
C300        C  0.34702770  0.21439770  0.06728793    -0.08400
C301        C  0.35224166  0.25658899  0.08591664    -0.03000
C302        C  0.36115417  0.29818114  0.06773023     0.03800
N303        N  0.36796337  0.34146132  0.08585251     0.66300
H304        H  0.36409410  0.33135412  0.01723522     0.15200
H305        H  0.33999815  0.18223804  0.08106079     0.14900
N306        N  0.33371593  0.17351209  0.01215641     0.74000
O307        O  0.40007651  0.35352229  0.09331735    -0.39400
O308        O  0.34311669  0.37168653  0.08741790    -0.39400
O309        O  0.35672433  0.13814897  0.51097679    -0.40100
O310        O  0.30059008  0.16747354  0.00475094    -0.40100
C311        C  0.17711052  0.16282082  0.06945977    -0.12400
C312        C  0.19181368  0.11714217  0.07048850     0.04600
C313        C  0.22953260  0.11515423  0.07032382    -0.07700
C314        C  0.24772289  0.14564288  0.09339989    -0.08400
C315        C  0.22803723  0.18286954  0.10682891    -0.03000
C316        C  0.19607033  0.19741272  0.08852143     0.03800
N317        N  0.18123412  0.24363903  0.09239627     0.66300
H318        H  0.14889690  0.16838955  0.06220358     0.15200
H319        H  0.27574465  0.13993488  0.10148648     0.14900
N320        N  0.24775965  0.07900996  0.05184314     0.74000
O321        O  0.19265965  0.27704963  0.07378975    -0.39400
O322        O  0.15221387  0.24898241  0.10790731    -0.39400
O323        O  0.28120329  0.07239260  0.05706557    -0.40100
O324        O  0.23134306  0.05781828  0.02697782    -0.40100
C325        C  0.15416465  0.96080374  0.22025927    -0.12400
C326        C  0.12467524  0.93255428  0.22455469     0.04600
C327        C  0.09660312  0.42616860  0.20063073    -0.07700
C328        C  0.10107407  0.45111115  0.16881890    -0.08400
C329        C  0.12831216  0.99025518  0.16554504    -0.03000
C330        C  0.15092155  0.99671162  0.19668783     0.03800
N331        N  0.16962766  0.03960403  0.20622274     0.66300
H332        H  0.17469126  0.96462961  0.24112997     0.15200
H333        H  0.08181358  0.44754499  0.14688297     0.14900
N334        N  0.06433861  0.40025217  0.20608340     0.74000
O335        O  0.15936330  0.06070516  0.23296405    -0.39400
O336        O  0.20176272  0.04591064  0.19797256    -0.39400
O337        O  0.03673517  0.42151162  0.21590919    -0.40100
O338        O  0.06170022  0.35808821  0.19583518    -0.40100
C339        C  0.08106083  0.04212979  0.48390446    -0.12400
C340        C  0.09134986  0.00711084  0.00291463     0.04600
C341        C  0.09708825  0.45846275  0.48960572    -0.07700
C342        C  0.09317832  0.45514658  0.45276123    -0.08400
C343        C  0.08480598  0.99654165  0.43040050    -0.03000
C344        C  0.07708286  0.03917413  0.44729076     0.03800
N345        N  0.06745007  0.08069919  0.42746089     0.66300
H346        H  0.07769909  0.07615716  0.49613414     0.15200
H347        H  0.09986040  0.42216226  0.44038468     0.14900
N348        N  0.10568365  0.41596268  0.00920723     0.74000
O349        O  0.03456450  0.09051585  0.42173020    -0.39400
O350        O  0.09091202  0.11208355  0.42264172    -0.39400
O351        O  0.08281810  0.38387975  0.01422299    -0.40100
O352        O  0.13870558  0.40755776  0.01553110    -0.40100
C353        C  0.94839009  0.24851302  0.28523682    -0.12400
C354        C  0.93385918  0.24790087  0.25073050     0.04600
C355        C  0.95686627  0.24079532  0.22283037    -0.07700
C356        C  0.99368969  0.23428360  0.22986889    -0.08400
C357        C  0.00847403  0.23536224  0.26436640    -0.03000
C358        C  0.98535191  0.24255021  0.29230529     0.03800
N359        N  0.99897696  0.24625399  0.32778332     0.66300
H360        H  0.93097879  0.25402424  0.30690354     0.15200
H361        H  0.01090385  0.22950958  0.20795965     0.14900
N362        N  0.94372051  0.24314870  0.18707972     0.74000
O363        O  0.00928948  0.28589550  0.33930021    -0.39400
O364        O  0.99427361  0.21261165  0.34903350    -0.39400
O365        O  0.94413086  0.28218335  0.17083143    -0.40100
O366        O  0.93893550  0.20548953  0.17006276    -0.40100
C367        C  0.49481879  0.49831829  0.24122160    -0.12400
C368        C  0.50828431  0.49490562  0.27604633     0.04600
C369        C  0.48403740  0.48953598  0.30328761    -0.07700
C370        C  0.44692188  0.48943456  0.29530060    -0.08400
C371        C  0.43362398  0.49340836  0.26046996    -0.03000
C372        C  0.45789494  0.49726069  0.23320837     0.03800
N373        N  0.44548913  0.50258033  0.19739507     0.66300
H374        H  0.51308670  0.50222342  0.21998240     0.15200
H375        H  0.42676253  0.00308541  0.31587435     0.14900
N376        N  0.49473611  0.00866933  0.33844965     0.74000
O377        O  0.44232349  0.54346529  0.18413322    -0.39400
O378        O  0.44505826  0.46716321  0.17754071    -0.39400
O379        O  0.49756636  0.05044618  0.34950616    -0.40100
O380        O  0.49841933  0.44586318  0.35388581    -0.40100
C381        C  0.66944558  0.43030836  0.08087058    -0.12400
C382        C  0.68237399  0.38372095  0.08174446     0.04600
C383        C  0.71935050  0.37777680  0.07699032    -0.07700
C384        C  0.74183889  0.40900991  0.09524299    -0.08400
C385        C  0.72595181  0.44887576  0.10909529    -0.03000
C386        C  0.69227543  0.46460108  0.09537624     0.03800
N387        N  0.67946470  0.51151662  0.10099950     0.66300
H388        H  0.64079823  0.43747574  0.07812613     0.15200
H389        H  0.77005643  0.40093721  0.10079415     0.14900
N390        N  0.73322969  0.33777093  0.05904119     0.74000
O391        O  0.68104478  0.54178503  0.07663267    -0.39400
O392        O  0.66148393  0.52063901  0.12740618    -0.39400
O393        O  0.71331734  0.31632985  0.03681247    -0.40100
O394        O  0.76646622  0.32819832  0.06123976    -0.40100
C395        C  0.57478768  0.24861426  0.21503875    -0.12400
C396        C  0.60167238  0.21624740  0.22678885     0.04600
C397        C  0.61858500  0.18903147  0.20145153    -0.07700
C398        C  0.61711591  0.20552075  0.16692818    -0.08400
C399        C  0.60245992  0.25022677  0.15992661    -0.03000
C400        C  0.57438238  0.26520922  0.18056784     0.03800
N401        N  0.54900857  0.30075573  0.16824698     0.66300
H402        H  0.55712796  0.26488969  0.23328471     0.15200
H403        H  0.63381158  0.18881179  0.14801790     0.14900
N404        N  0.63796714  0.14646796  0.20959747     0.74000
O405        O  0.53136373  0.32426419  0.18962354    -0.39400
O406        O  0.54202027  0.30616087  0.13578272    -0.39400
O407        O  0.62962729  0.11023216  0.19202969    -0.40100
O408        O  0.66896795  0.14862706  0.22441235    -0.40100
C409        C  0.57461723  0.25144945  0.45470669    -0.12400
C410        C  0.60458859  0.27045746  0.43800334     0.04600
C411        C  0.63500630  0.28425926  0.45898217    -0.07700
C412        C  0.63698348  0.27134862  0.49402564    -0.08400
C413        C  0.60451403  0.26338775  0.01131622    -0.03000
C414        C  0.57375566  0.25204738  0.49173147     0.03800
N415        N  0.53968420  0.24414286  0.00878771     0.66300
H416        H  0.55094199  0.24064473  0.43923107     0.15200
H417        H  0.66099485  0.27598899  0.00797181     0.14900
N418        N  0.66006227  0.31926175  0.44754377     0.74000
O419        O  0.51817589  0.27770952  0.01365400    -0.39400
O420        O  0.52926435  0.20209087  0.01288449    -0.39400
O421        O  0.64834728  0.35998458  0.43933705    -0.40100
O422        O  0.69334340  0.31419118  0.45472408    -0.40100
C423        C  0.71478164  0.12065415  0.45216049    -0.12400
C424        C  0.75139556  0.12956867  0.44858894     0.04600
C425        C  0.76289598  0.17648158  0.45388029    -0.07700
C426        C  0.74021712  0.21134021  0.43973908    -0.08400
C427        C  0.70638236  0.19700568  0.42648196    -0.03000
C428        C  0.69118403  0.15512259  0.43898826     0.03800
N429        N  0.65325002  0.14658584  0.43618866     0.66300
H430        H  0.70513535  0.08531153  0.45742086     0.15200
H431        H  0.75076369  0.24612541  0.43392939     0.14900
N432        N  0.79933433  0.18725240  0.46471023     0.74000
O433        O  0.63985173  0.12348575  0.41073223    -0.39400
O434        O  0.63464949  0.15340902  0.46255719    -0.39400
O435        O  0.81930463  0.20980495  0.44449575    -0.40100
O436        O  0.80900985  0.18264715  0.49667031    -0.40100
C437        C  0.87036861  0.00629966  0.30858811    -0.12400
C438        C  0.85067109  0.96618918  0.29886774     0.04600
C439        C  0.83507566  0.44470106  0.32755816    -0.07700
C440        C  0.83041729  0.47012028  0.35884752    -0.08400
C441        C  0.83398851  0.01757355  0.35718053    -0.03000
C442        C  0.84895414  0.03677211  0.32658871     0.03800
N443        N  0.82750993  0.06791040  0.30392641     0.66300
H444        H  0.88737185  0.02235690  0.28938883     0.15200
H445        H  0.81778538  0.45324274  0.38075040     0.14900
N446        N  0.82339429  0.39705320  0.32450405     0.74000
O447        O  0.84248222  0.09127744  0.28029429    -0.39400
O448        O  0.79349108  0.06655981  0.30370343    -0.39400
O449        O  0.84478711  0.36438957  0.33421234    -0.40100
O450        O  0.79039377  0.38811430  0.31881342    -0.40100
C451        C  0.86186018  0.06586008  0.03422913    -0.12400
C452        C  0.85148597  0.02604725  0.01432233     0.04600
C453        C  0.84403634  0.98367447  0.03228062    -0.07700
C454        C  0.84275545  0.48474180  0.06872577    -0.08400
C455        C  0.84748247  0.02540212  0.08819636    -0.03000
C456        C  0.85896878  0.06626373  0.07071714     0.03800
N457        N  0.86560743  0.10919045  0.08931051     0.66300
H458        H  0.86746953  0.09878564  0.02079386     0.15200
H459        H  0.83394597  0.45278732  0.08170214     0.14900
N460        N  0.83172281  0.44512912  0.01267307     0.74000
O461        O  0.89739854  0.11957340  0.09945242    -0.39400
O462        O  0.84131861  0.14034103  0.08959708    -0.39400
O463        O  0.86949261  0.41903886  0.50972300    -0.40100
O464        O  0.79885659  0.44166521  0.00317620    -0.40100
C465        C  0.77118949  0.10306399  0.92217622     0.29900
C466        C  0.81429847  0.05037701  0.88233205     0.29900
C467        C  0.79377268  0.13186961  0.89570550    -0.06300
C468        C  0.79860645  0.07165522  0.94171167    -0.07100
C469        C  0.75077112  0.06767315  0.89796185    -0.07000
C470        C  0.81837064  0.10547062  0.87801908    -0.06300
C471        C  0.82114348  0.04407112  0.92242842    -0.07100
C472        C  0.77279034  0.04097537  0.87757077    -0.07000
C473        C  0.83462494  0.13664242  0.85486901    -0.32400
N474        N  0.81473269  0.17652037  0.85083581     0.14100
C475        C  0.78899584  0.17326586  0.87528333    -0.32400
H476        H  0.76668076  0.19750074  0.87633832     0.16100
C477        C  0.84416342  0.02113205  0.94725700    -0.31400
N478        N  0.83505866  0.03503013  0.98002775     0.12800
C479        C  0.80712583  0.06520472  0.97639623    -0.31400
C480        C  0.75071543  0.51147363  0.85863825    -0.31700
N481        N  0.71584219  0.51933483  0.86680356     0.13300
H482        H  0.75880261  0.48584862  0.83965915     0.16000
C483        C  0.71540567  0.05338663  0.89000598    -0.31700
H484        H  0.69112283  0.06832592  0.89965207     0.16000
H485        H  0.79452355  0.08256459  0.99789026     0.16000
H486        H  0.85751769  0.12943438  0.83933947     0.16000
H487        H  0.86686662  0.49878599  0.94194332     0.16000
O488        O  0.68082985  0.25560406  0.89350535    -0.81900
C489        C  0.61301774  0.21946003  0.76302391     0.97400
O490        O  0.63855718  0.19377712  0.77611890    -0.71100
O491        O  0.69769282  0.23474752  0.79588460    -0.74700
Al492      Al  0.66669741  0.19638600  0.82066878     1.49000
C493        C  0.71739692  0.26837843  0.80578559     0.92700
O494        O  0.65088051  0.32789427  0.82088770    -0.80900
O495        O  0.58959261  0.24327312  0.87912122    -0.74400
Al496      Al  0.66541933  0.29095339  0.85693639     1.90100
O497        O  0.59312734  0.31915992  0.82882009    -0.73500
O498        O  0.58652924  0.17626716  0.82303398    -0.73400
O499        O  0.59780672  0.25025722  0.78105540    -0.79000
O500        O  0.63867765  0.15162305  0.84250494    -0.77200
O501        O  0.64244801  0.24382763  0.83561174    -1.13300
O502        O  0.69614755  0.19247903  0.86394747    -0.72500
C503        C  0.69305604  0.21502031  0.89256369     0.98200
C504        C  0.62025033  0.34525668  0.82158864     0.94600
Al505      Al  0.59465007  0.24690361  0.82906806     1.55600
O506        O  0.71170769  0.28818287  0.83440230    -0.77200
C507        C  0.60925392  0.14251682  0.82721971     0.98700
C508        C  0.60461043  0.27422005  0.89890751     0.93600
O509        O  0.62532045  0.30482870  0.88592957    -0.82500
C510        C  0.66420143  0.34897471  0.60659036     0.29900
C511        C  0.62597674  0.28491858  0.64226784     0.29900
C512        C  0.64729241  0.36861374  0.63980580    -0.06300
C513        C  0.63148332  0.32806956  0.58724964    -0.07100
C514        C  0.68668503  0.30577554  0.62159086    -0.07000
C515        C  0.62738876  0.33633745  0.65859173    -0.06300
C516        C  0.61322662  0.29295945  0.60400879    -0.07100
C517        C  0.66680590  0.27291111  0.63996922    -0.07000
C518        C  0.61704454  0.36100350  0.68857899    -0.32400
N519        N  0.62881729  0.40701082  0.68726508     0.14100
C520        C  0.64853305  0.41062311  0.65833292    -0.32400
H521        H  0.66509222  0.44063097  0.65312884     0.16100
C522        C  0.59835734  0.26450649  0.57730697    -0.31400
N523        N  0.60409068  0.28562700  0.54581018     0.12800
C524        C  0.62276136  0.32584592  0.55245219    -0.31400
C525        C  0.69141540  0.24778345  0.66188281    -0.31700
N526        N  0.72559366  0.26237343  0.65680856     0.13300
H527        H  0.68484160  0.22373598  0.68277191     0.16000
C528        C  0.72271606  0.29959220  0.63399545    -0.31700
H529        H  0.74492865  0.32305606  0.62938458     0.16000
H530        H  0.63489809  0.34755794  0.53261724     0.16000
H531        H  0.60362856  0.34577319  0.71061511     0.16000
H532        H  0.58842861  0.22883167  0.58046810     0.16000
O533        O  0.75976471  0.50641799  0.63324768    -0.81900
C534        C  0.83333814  0.47084768  0.76306643     0.97400
O535        O  0.80622148  0.44621591  0.75268045    -0.71100
O536        O  0.74890660  0.49601648  0.73552585    -0.74700
Al537      Al  0.77432227  0.45305446  0.70956404     1.49000
C538        C  0.72501849  0.02386307  0.72172537     0.92700
O539        O  0.78959788  0.08509714  0.69963915    -0.80900
O540        O  0.85013674  0.49575664  0.64586238    -0.74400
Al541      Al  0.77508775  0.04468073  0.66646402     1.90100
O542        O  0.84761060  0.07209909  0.69500281    -0.73500
O543        O  0.85264742  0.42887549  0.70030614    -0.73400
O544        O  0.84437183  0.00292237  0.74278216    -0.79000
O545        O  0.79804371  0.40597582  0.68623756    -0.77200
O546        O  0.79883761  0.49826727  0.69065524    -1.13300
O547        O  0.73976735  0.45123015  0.66910650    -0.72500
C548        C  0.74235346  0.47002934  0.63858358     0.98200
C549        C  0.82113678  0.09947283  0.70180567     0.94600
Al550      Al  0.84557778  0.00002809  0.69499630     1.55600
O551        O  0.72900600  0.04134511  0.69136822    -0.77200
C552        C  0.82900387  0.39598150  0.69800514     0.98700
C553        C  0.83773705  0.02737159  0.62492833     0.93600
O554        O  0.81487800  0.05753376  0.63500679    -0.82500
O555        O  0.56495164  0.52395179  0.76166403    -0.81900
C556        C  0.68401828  0.49754862  0.85006114     0.97400
O557        O  0.65290481  0.51466463  0.85318477    -0.71100
O558        O  0.59606515  0.06066247  0.82824275    -0.74700
Al559      Al  0.60843651  0.49480796  0.82867789     1.49000
C560        C  0.60609675  0.09509459  0.80984068     0.92700
O561        O  0.66178505  0.04003119  0.73050854    -0.80900
O562        O  0.66057435  0.44307288  0.73402225    -0.74400
Al563      Al  0.61366798  0.02976146  0.75110414     1.90100
O564        O  0.69661171  0.51168272  0.77422584    -0.73500
O565        O  0.64085167  0.40566408  0.78975765    -0.73400
O566        O  0.68726136  0.46250208  0.83032998    -0.79000
O567        O  0.61406631  0.42686014  0.83710937    -0.77200
O568        O  0.62985519  0.49435182  0.78753637    -1.13100
O569        O  0.56291136  0.47852042  0.80852437    -0.72500
C570        C  0.54743475  0.49873877  0.78246712     0.98200
C571        C  0.69305486  0.02962528  0.74318376     0.94600
Al572      Al  0.66817757  0.45866613  0.78281893     1.55600
O573        O  0.61875068  0.08782749  0.77947540    -0.77200
C574        C  0.62146353  0.39566163  0.81478082     0.98700
C575        C  0.63154955  0.44122056  0.71573746     0.93600
O576        O  0.60692170  0.47147381  0.72131738    -0.82500
O577        O  0.87729968  0.28054268  0.76454313    -0.81900
C578        C  0.75775497  0.24656482  0.67718888     0.97400
O579        O  0.78770399  0.26734255  0.67463289    -0.71100
O580        O  0.84491043  0.31503178  0.69796063    -0.74700
Al581      Al  0.83289793  0.24902980  0.69874887     1.49000
C582        C  0.83326785  0.34878327  0.71539928     0.92700
O583        O  0.77852204  0.29380075  0.79519189    -0.80900
O584        O  0.78534049  0.19627117  0.79676506    -0.74400
Al585      Al  0.82709273  0.28503729  0.77539435     1.90100
O586        O  0.74585528  0.25987573  0.75393342    -0.73500
O587        O  0.80595000  0.15710591  0.73955809    -0.73400
O588        O  0.75599356  0.21204509  0.69852756    -0.79000
O589        O  0.82750719  0.18163920  0.69010635    -0.77200
O590        O  0.81258729  0.24770465  0.74054113    -1.13300
O591        O  0.87823435  0.23347943  0.71883050    -0.72500
C592        C  0.89427072  0.25417433  0.74408987     0.98200
C593        C  0.74806437  0.27859917  0.78348911     0.94600
Al594      Al  0.77628228  0.20917921  0.74655544     1.55600
O595        O  0.82036157  0.34108122  0.74546413    -0.77200
C596        C  0.82221889  0.14871733  0.71208218     0.98700
C597        C  0.81190531  0.20356778  0.81795462     0.93600
O598        O  0.83589685  0.23313591  0.80940746    -0.82500
C599        C  0.17731955  0.07977658  0.59586437     0.29900
C600        C  0.14101360  0.01679048  0.63479146     0.29900
C601        C  0.15572204  0.10178051  0.62620537    -0.06300
C602        C  0.14821083  0.05014229  0.57600412    -0.07100
C603        C  0.20123523  0.04103025  0.61486196    -0.07000
C604        C  0.13592551  0.06945792  0.64407165    -0.06300
C605        C  0.12887304  0.01704868  0.59535848    -0.07100
C606        C  0.18181714  0.00705460  0.63136593    -0.07000
C607        C  0.11799710  0.09318472  0.66996153    -0.32400
N608        N  0.12818971  0.13924414  0.67079728     0.14100
C609        C  0.15178852  0.14447494  0.64457502    -0.32400
H610        H  0.16822609  0.17548742  0.64246260     0.16100
C611        C  0.10595099  0.99422037  0.57082759    -0.31400
N612        N  0.11107998  0.01350318  0.53829111     0.12800
C613        C  0.13686298  0.04716225  0.54164650    -0.31400
C614        C  0.20530647  0.47545315  0.64765706    -0.31700
N615        N  0.23892294  0.49331816  0.64708629     0.13300
H616        H  0.19822170  0.44506282  0.66334469     0.16000
C617        C  0.23721443  0.03288920  0.62679265    -0.31700
H618        H  0.25951470  0.05695463  0.62446719     0.16000
H619        H  0.14699623  0.06789835  0.52020464     0.16000
H620        H  0.10200064  0.07650557  0.68963402     0.16000
H621        H  0.08671123  0.46529443  0.57758104     0.16000
O622        O  0.26378080  0.24074797  0.62859307    -0.81900
C623        C  0.33215721  0.21675652  0.76157837     0.97400
O624        O  0.30306388  0.19596622  0.75220553    -0.71100
O625        O  0.25109902  0.25129412  0.73065521    -0.74700
Al626      Al  0.27304358  0.19898491  0.70966938     1.49000
C627        C  0.22546436  0.27043635  0.71385863     0.92700
O628        O  0.29433569  0.32661127  0.69017927    -0.80900
O629        O  0.35195640  0.22699851  0.64437026    -0.74400
Al630      Al  0.27922650  0.28268693  0.66021060     1.90100
O631        O  0.35229553  0.30718188  0.69068506    -0.73500
O632        O  0.35020032  0.16429772  0.70192472    -0.73400
O633        O  0.34768017  0.24384347  0.74098835    -0.79000
O634        O  0.29369738  0.14359568  0.69372402    -0.77200
O635        O  0.30038913  0.23773810  0.68747439    -1.13300
O636        O  0.23966306  0.19307894  0.66775713    -0.72500
C637        C  0.24464345  0.20649520  0.63598732     0.98200
C638        C  0.32677514  0.33722999  0.69513900     0.94600
Al639      Al  0.34753216  0.23561909  0.69326877     1.55600
O640        O  0.23093389  0.28346737  0.68257667    -0.77200
C641        C  0.32527069  0.13279326  0.70376589     0.98700
C642        C  0.34220190  0.25877495  0.62244419     0.93600
O643        O  0.32024264  0.29082874  0.63073320    -0.82500
C644        C  0.26828224  0.31981425  0.91445367     0.29900
C645        C  0.31548243  0.26504768  0.88101166     0.29900
C646        C  0.29161636  0.34668962  0.88767192    -0.06300
C647        C  0.29602372  0.29382961  0.93741979    -0.07100
C648        C  0.25043668  0.28019618  0.89180059    -0.07000
C649        C  0.31588878  0.31891436  0.87043567    -0.06300
C650        C  0.32022850  0.26591275  0.92097008    -0.07100
C651        C  0.27462354  0.25239582  0.87437413    -0.07000
C652        C  0.32861113  0.34741899  0.84333055    -0.32400
N653        N  0.31439734  0.39189666  0.84455722     0.14100
C654        C  0.29060362  0.39079341  0.87082011    -0.32400
H655        H  0.27125159  0.41849796  0.87514081     0.16100
C656        C  0.34380864  0.24777899  0.94693183    -0.31400
N657        N  0.33363719  0.26474266  0.97818972     0.12800
C658        C  0.30453822  0.29278076  0.97251759    -0.31400
C659        C  0.25388358  0.22492324  0.85097119    -0.31700
N660        N  0.21815658  0.23308556  0.85487798     0.13300
H661        H  0.26384003  0.20248544  0.83084447     0.16000
C662        C  0.21581405  0.26803125  0.87894657    -0.31700
H663        H  0.19099742  0.28602512  0.88429631     0.16000
H664        H  0.29093701  0.31166933  0.99265456     0.16000
H665        H  0.34406031  0.33535672  0.82189042     0.16000
H666        H  0.36688401  0.22526500  0.94337272     0.16000
O667        O  0.17509664  0.47937935  0.89778034    -0.81900
C668        C  0.12131289  0.42987583  0.76347127     0.97400
O669        O  0.14359542  0.40459975  0.78171902    -0.71100
O670        O  0.20093743  0.44621130  0.80440089    -0.74700
Al671      Al  0.16582237  0.41198939  0.82809316     1.49000
C672        C  0.21576774  0.98477489  0.80789989     0.92700
O673        O  0.14802465  0.04552137  0.81458276    -0.80900
O674        O  0.08254832  0.46419537  0.87303532    -0.74400
Al675      Al  0.16003851  0.01276596  0.85431984     1.90100
O676        O  0.09034241  0.03860434  0.81806544    -0.73500
O677        O  0.08527938  0.39471397  0.81988481    -0.73400
O678        O  0.10190100  0.96158268  0.77424877    -0.79000
O679        O  0.13308635  0.37112634  0.84890699    -0.77200
O680        O  0.14045922  0.46210847  0.83660968    -1.13300
O681        O  0.19063175  0.41246625  0.87354153    -0.72500
C682        C  0.18706604  0.43844531  0.90028832     0.98200
C683        C  0.11806573  0.06449237  0.81243620     0.94600
Al684      Al  0.09335316  0.46493426  0.82420059     1.55600
O685        O  0.20709867  0.00952246  0.83353634    -0.77200
C686        C  0.10680985  0.36118964  0.82864197     0.98700
C687        C  0.09393509  0.99782270  0.89117755     0.93600
O688        O  0.11710318  0.02747876  0.88056520    -0.82500
O689        O  0.06732081  0.24089971  0.74246364    -0.81900
C690        C  0.18915489  0.21510557  0.83177026     0.97400
O691        O  0.15732323  0.20774893  0.84263696    -0.71100
O692        O  0.11503759  0.27867722  0.82758595    -0.74700
Al693      Al  0.10974024  0.21447745  0.81670341     1.49000
C694        C  0.10805759  0.31487625  0.80935997     0.92700
O695        O  0.16499292  0.28487679  0.73578701    -0.80900
O696        O  0.13540818  0.14781592  0.73134169    -0.74400
Al697      Al  0.11601242  0.25978286  0.74167233     1.90100
O698        O  0.18688986  0.21378332  0.73175532    -0.73500
O699        O  0.15190002  0.13013521  0.79764741    -0.73400
O700        O  0.19585262  0.20696515  0.80015781    -0.79000
O701        O  0.09793177  0.14693081  0.81190494    -0.77200
O702        O  0.12976916  0.21843099  0.77498245    -1.13300
O703        O  0.06189725  0.22476583  0.79851663    -0.72500
C704        C  0.04796276  0.23297632  0.76828255     0.98200
C705        C  0.18979665  0.25731774  0.72659547     0.94600
Al706      Al  0.16448562  0.17810214  0.76619218     1.55600
O707        O  0.10660630  0.31209227  0.77570295    -0.77200
C708        C  0.12123486  0.11629391  0.80603937     0.98700
C709        C  0.12734316  0.16795834  0.70237849     0.93600
O710        O  0.12178977  0.21302578  0.70165106    -0.82500
O711        O  0.37459283  0.51806563  0.77240084    -0.81900
C712        C  0.26749599  0.47995963  0.67267680     0.97400
O713        O  0.29662417  0.50282372  0.67452090    -0.71100
O714        O  0.34791896  0.05359939  0.70538282    -0.74700
Al715      Al  0.33868084  0.48653537  0.70284449     1.49000
C716        C  0.33048518  0.08469300  0.72091616     0.92700
O717        O  0.27384513  0.01768931  0.79555080    -0.80900
O718        O  0.28749777  0.41770926  0.79169659    -0.74400
Al719      Al  0.32325699  0.01586008  0.77866226     1.90100
O720        O  0.24413787  0.48094641  0.75584471    -0.73500
O721        O  0.31309846  0.39003995  0.73583594    -0.73400
O722        O  0.26235292  0.44681522  0.69480404    -0.79000
O723        O  0.33665800  0.42004414  0.68952692    -0.77200
O724        O  0.31375910  0.48025968  0.74238050    -1.13300
O725        O  0.38223766  0.47238680  0.72683197    -0.72500
C726        C  0.39475852  0.49456599  0.75305710     0.98200
C727        C  0.24519145  0.99746387  0.78421758     0.94600
Al728      Al  0.27959926  0.43735448  0.74389186     1.55600
O729        O  0.31473466  0.07356215  0.74923701    -0.77200
C730        C  0.33004392  0.38464706  0.70868512     0.98700
C731        C  0.31200071  0.42477038  0.81483524     0.93600
O732        O  0.33325714  0.46007378  0.81154212    -0.82500
C733        C  0.25818668  0.39514276  0.94570891    -0.12400
C734        C  0.24556193  0.34985217  0.93692399     0.04600
C735        C  0.20964028  0.33854089  0.94408832    -0.07700
C736        C  0.18493446  0.37571338  0.94239504    -0.08400
C737        C  0.19788038  0.42097181  0.93495838    -0.03000
C738        C  0.23335452  0.43176278  0.94604677     0.03800
N739        N  0.24578009  0.47947361  0.94812691     0.66300
H740        H  0.28671506  0.40331121  0.94614904     0.15200
H741        H  0.15629873  0.36842763  0.94010288     0.14900
N742        N  0.19865544  0.29125568  0.95286303     0.74000
O743        O  0.25803870  0.49476010  0.97720978    -0.39400
O744        O  0.25190019  0.50226117  0.92043376    -0.39400
O745        O  0.22149024  0.26202612  0.96554487    -0.40100
O746        O  0.16564049  0.28052180  0.95261682    -0.40100
C747        C  0.37067978  0.25287626  0.84734446    -0.12400
C748        C  0.34271838  0.23228789  0.86550050     0.04600
C749        C  0.33142490  0.18679322  0.85498723    -0.07700
C750        C  0.33187392  0.17720305  0.81921342    -0.08400
C751        C  0.34757790  0.21033371  0.79710771    -0.03000
C752        C  0.37297766  0.24244835  0.81195096     0.03800
N753        N  0.39824199  0.26753025  0.79144958     0.66300
H754        H  0.38515067  0.28310913  0.85800682     0.15200
H755        H  0.31670899  0.14761477  0.80840740     0.14900
N756        N  0.31407558  0.15509262  0.87864009     0.74000
O757        O  0.38960142  0.30679001  0.77754502    -0.39400
O758        O  0.43110875  0.25619741  0.79431076    -0.39400
O759        O  0.29291346  0.12338720  0.86704665    -0.40100
O760        O  0.32305870  0.15517960  0.91091380    -0.40100
C761        C  0.36117147  0.29794043  0.53094542    -0.12400
C762        C  0.35117830  0.25704126  0.51249599     0.04600
C763        C  0.34708276  0.21429098  0.53099752    -0.07700
C764        C  0.34898155  0.21430178  0.56777024    -0.08400
C765        C  0.35362892  0.25683858  0.58608084    -0.03000
C766        C  0.36181405  0.29842959  0.56752228     0.03800
N767        N  0.36777571  0.34219939  0.58525053     0.66300
H768        H  0.36424771  0.33094011  0.51673873     0.15200
H769        H  0.34240566  0.18217040  0.58180776     0.14900
N770        N  0.33536216  0.17255618  0.51310445     0.74000
O771        O  0.39961021  0.35497031  0.59325340    -0.39400
O772        O  0.34255472  0.37201473  0.58595474    -0.39400
O773        O  0.35540398  0.13972244  0.00876772    -0.40100
O774        O  0.30226716  0.16679936  0.50538873    -0.40100
C775        C  0.18049208  0.15881112  0.56862057    -0.12400
C776        C  0.19553300  0.11339798  0.57084504     0.04600
C777        C  0.23333936  0.11186852  0.57148517    -0.07700
C778        C  0.25083141  0.14336073  0.59424034    -0.08400
C779        C  0.23065941  0.18101269  0.60628819    -0.03000
C780        C  0.19884426  0.19434978  0.58722093     0.03800
N781        N  0.18361242  0.24053785  0.58971762     0.66300
H782        H  0.15235473  0.16375719  0.56076942     0.15200
H783        H  0.27872520  0.13822563  0.60302539     0.14900
N784        N  0.25235478  0.07566730  0.55382730     0.74000
O785        O  0.19524103  0.27327425  0.57059333    -0.39400
O786        O  0.15406002  0.24608158  0.60425768    -0.39400
O787        O  0.28562689  0.06905586  0.56032285    -0.40100
O788        O  0.23697660  0.05458373  0.52834205    -0.40100
C789        C  0.15632418  0.95866102  0.72081208    -0.12400
C790        C  0.12681806  0.93031789  0.72478318     0.04600
C791        C  0.09983121  0.42822195  0.69962367    -0.07700
C792        C  0.10394653  0.45374107  0.66807141    -0.08400
C793        C  0.13066901  0.98843208  0.66628036    -0.03000
C794        C  0.15288542  0.99494258  0.69761910     0.03800
N795        N  0.17156793  0.03779675  0.70728846     0.66300
H796        H  0.17669714  0.96240603  0.74178529     0.15200
H797        H  0.08559286  0.44847921  0.64562226     0.14900
N798        N  0.06935698  0.39829137  0.70365896     0.74000
O799        O  0.16080257  0.05934368  0.73363549    -0.39400
O800        O  0.20392917  0.04372486  0.69961720    -0.39400
O801        O  0.03929918  0.41616971  0.71019579    -0.40100
O802        O  0.07091920  0.35564101  0.69452205    -0.40100
C803        C  0.07850987  0.04493515  0.98159777    -0.12400
C804        C  0.09357659  0.00356863  0.50452584     0.04600
C805        C  0.09511837  0.45707050  0.98935595    -0.07700
C806        C  0.09202779  0.45446898  0.95236526    -0.08400
C807        C  0.08458225  0.99860284  0.92873486    -0.03000
C808        C  0.07510991  0.04102449  0.94494005     0.03800
N809        N  0.06316638  0.08093383  0.92436274     0.66300
H810        H  0.07384007  0.07893981  0.99339691     0.15200
H811        H  0.09837033  0.42149151  0.93981157     0.14900
N812        N  0.10965418  0.41831376  0.50952052     0.74000
O813        O  0.03005078  0.08552116  0.91616698    -0.39400
O814        O  0.08426733  0.11517207  0.91978602    -0.39400
O815        O  0.08848647  0.38426309  0.51452712    -0.40100
O816        O  0.14301972  0.41287386  0.51596502    -0.40100
C817        C  0.94855769  0.25048991  0.78408892    -0.12400
C818        C  0.93344608  0.24731673  0.74990729     0.04600
C819        C  0.95605387  0.23731604  0.72206528    -0.07700
C820        C  0.99307302  0.23166383  0.72881520    -0.08400
C821        C  0.00832527  0.23528758  0.76298612    -0.03000
C822        C  0.98554775  0.24440530  0.79089669     0.03800
N823        N  0.99956172  0.24956894  0.82612241     0.66300
H824        H  0.93154898  0.25779954  0.80576748     0.15200
H825        H  0.01001791  0.22488215  0.70699636     0.14900
N826        N  0.94222577  0.23479655  0.68656780     0.74000
O827        O  0.00816759  0.29006566  0.83722811    -0.39400
O828        O  0.99697887  0.21572483  0.84763369    -0.39400
O829        O  0.94554331  0.26996043  0.66638175    -0.40100
O830        O  0.93396151  0.19512219  0.67371200    -0.40100
C831        C  0.49457787  0.50170232  0.74123091    -0.12400
C832        C  0.50830892  0.49396592  0.77565131     0.04600
C833        C  0.48422572  0.48467051  0.80253692    -0.07700
C834        C  0.44708090  0.48548460  0.79479018    -0.08400
C835        C  0.43366178  0.49408928  0.76048313    -0.03000
C836        C  0.45764155  0.50163254  0.73344351     0.03800
N837        N  0.44486811  0.51185271  0.69829507     0.66300
H838        H  0.51260188  0.50858926  0.72017819     0.15200
H839        H  0.42811616  0.98482434  0.81613495     0.14900
N840        N  0.49625199  0.98221001  0.83883462     0.74000
O841        O  0.43835419  0.55409111  0.68920875    -0.39400
O842        O  0.44698894  0.48064539  0.67507719    -0.39400
O843        O  0.49466955  0.01633130  0.85975486    -0.40100
O844        O  0.50010478  0.43340408  0.84859062    -0.40100
C845        C  0.66909935  0.42932732  0.58127958    -0.12400
C846        C  0.68249762  0.38299386  0.58225473     0.04600
C847        C  0.71950025  0.37740618  0.57715806    -0.07700
C848        C  0.74194551  0.40940756  0.59462909    -0.08400
C849        C  0.72598241  0.44944879  0.60807569    -0.03000
C850        C  0.69192209  0.46426906  0.59482932     0.03800
N851        N  0.67888220  0.51110253  0.60017053     0.66300
H852        H  0.64036105  0.43601804  0.57904060     0.15200
H853        H  0.77026065  0.40176688  0.60001481     0.14900
N854        N  0.73360899  0.33733890  0.55944723     0.74000
O855        O  0.68316720  0.54220253  0.57681673    -0.39400
O856        O  0.65809908  0.51938899  0.62466408    -0.39400
O857        O  0.71410248  0.31623187  0.53673270    -0.40100
O858        O  0.76679912  0.32758747  0.56221249    -0.40100
C859        C  0.57369849  0.24723948  0.71325934    -0.12400
C860        C  0.60089354  0.21582391  0.72607970     0.04600
C861        C  0.61867860  0.18827213  0.70140510    -0.07700
C862        C  0.61767248  0.20382849  0.66668255    -0.08400
C863        C  0.60278187  0.24807910  0.65889059    -0.03000
C864        C  0.57396862  0.26229491  0.67848252     0.03800
N865        N  0.54474682  0.28891205  0.66263623     0.66300
H866        H  0.55475533  0.26308734  0.73047533     0.15200
H867        H  0.63470516  0.18677828  0.64822869     0.14900
N868        N  0.63838802  0.14620116  0.71026002     0.74000
O869        O  0.54488701  0.33344589  0.66321326    -0.39400
O870        O  0.52097784  0.26779746  0.64403970    -0.39400
O871        O  0.63138867  0.11002989  0.69213062    -0.40100
O872        O  0.66893769  0.14918211  0.72590989    -0.40100
C873        C  0.57250483  0.25391778  0.95455993    -0.12400
C874        C  0.60263488  0.27214582  0.93763220     0.04600
C875        C  0.63370642  0.28397580  0.95842672    -0.07700
C876        C  0.63609996  0.26945628  0.99315764    -0.08400
C877        C  0.60517817  0.26439674  0.51166778    -0.03000
C878        C  0.57241234  0.25312848  0.99167907     0.03800
N879        N  0.54068381  0.24339598  0.50831379     0.66300
H880        H  0.54839095  0.24428395  0.93928551     0.15200
H881        H  0.66137008  0.27944059  0.50909026     0.14900
N882        N  0.65950491  0.31817557  0.94721907     0.74000
O883        O  0.51982216  0.27746238  0.51379248    -0.39400
O884        O  0.52928982  0.20158855  0.51112994    -0.39400
O885        O  0.64862679  0.35920320  0.93878617    -0.40100
O886        O  0.69262820  0.31210969  0.95473453    -0.40100
C887        C  0.71515471  0.12011842  0.95257161    -0.12400
C888        C  0.75155449  0.13058512  0.94939685     0.04600
C889        C  0.76154122  0.17802910  0.95446049    -0.07700
C890        C  0.73819242  0.21162449  0.93973665    -0.08400
C891        C  0.70510805  0.19554167  0.92571784    -0.03000
C892        C  0.69063002  0.15270634  0.93784258     0.03800
N893        N  0.65305180  0.14102238  0.93253195     0.66300
H894        H  0.70687581  0.08420806  0.95799154     0.15200
H895        H  0.74786097  0.24695104  0.93422615     0.14900
N896        N  0.79705504  0.19090238  0.96687164     0.74000
O897        O  0.64195717  0.09972090  0.93871309    -0.39400
O898        O  0.63017308  0.17316549  0.92596886    -0.39400
O899        O  0.81894942  0.20850530  0.94600905    -0.40100
O900        O  0.80325655  0.19523964  0.99945696    -0.40100
C901        C  0.86953177  0.00768901  0.80798755    -0.12400
C902        C  0.84916109  0.96798985  0.79856905     0.04600
C903        C  0.83375081  0.44472087  0.82715459    -0.07700
C904        C  0.82970826  0.47033618  0.85842287    -0.08400
C905        C  0.83446527  0.01950566  0.85747691    -0.03000
C906        C  0.84908211  0.03855677  0.82663390     0.03800
N907        N  0.82798751  0.07074521  0.80453021     0.66300
H908        H  0.88638732  0.02345847  0.78854173     0.15200
H909        H  0.81679861  0.45389350  0.88034109     0.14900
N910        N  0.82123032  0.39740842  0.82422694     0.74000
O911        O  0.84314772  0.09405861  0.78098534    -0.39400
O912        O  0.79396927  0.07044573  0.80461546    -0.39400
O913        O  0.84162580  0.36428541  0.83513671    -0.40100
O914        O  0.78817921  0.38950558  0.81782767    -0.40100
C915        C  0.86209369  0.06716748  0.53375768    -0.12400
C916        C  0.85193305  0.02715557  0.51395540     0.04600
C917        C  0.84451009  0.98488711  0.53203122    -0.07700
C918        C  0.84918006  0.48868676  0.56859039    -0.08400
C919        C  0.84819314  0.02670410  0.58791126    -0.03000
C920        C  0.85925751  0.06770878  0.57027456     0.03800
N921        N  0.86541790  0.11090148  0.58868438     0.66300
H922        H  0.86748728  0.10008826  0.52021986     0.15200
H923        H  0.84355754  0.45504062  0.58101285     0.14900
N924        N  0.84459030  0.44905055  0.51189103     0.74000
O925        O  0.89700561  0.12147190  0.59936742    -0.39400
O926        O  0.84119538  0.14220920  0.58786497    -0.39400
O927        O  0.85176622  0.40921840  0.01168945    -0.40100
O928        O  0.81279043  0.43814531  0.50213362    -0.40100
C929        C  0.77134347  0.60432621  0.42155167     0.29900
C930        C  0.81462051  0.55095468  0.38236454     0.29900
C931        C  0.79284988  0.63236664  0.39380278    -0.06300
C932        C  0.79978359  0.57496308  0.44142906    -0.07100
C933        C  0.75113201  0.56712049  0.39883489    -0.07000
C934        C  0.81750862  0.60586172  0.37640736    -0.06300
C935        C  0.82245720  0.54701512  0.42257015    -0.07100
C936        C  0.77317989  0.54017209  0.37860706    -0.07000
C937        C  0.83368627  0.63682707  0.35302866    -0.32400
N938        N  0.81379421  0.67666537  0.34888875     0.14100
C939        C  0.78813963  0.67371813  0.37337493    -0.32400
H940        H  0.76618708  0.69839079  0.37457755     0.16100
C941        C  0.84659888  0.52667115  0.44776218    -0.31400
N942        N  0.83817203  0.54274324  0.48023067     0.12800
C943        C  0.80943962  0.57148322  0.47607107    -0.31400
C944        C  0.74924736  0.00751252  0.35870914    -0.31700
N945        N  0.71436185  0.01505037  0.36706044     0.13300
H946        H  0.75738101  0.98231741  0.33943025     0.16000
C947        C  0.71582768  0.55232152  0.39136959    -0.31700
H948        H  0.69154311  0.56725842  0.40121175     0.16000
H949        H  0.79669876  0.58951194  0.49717835     0.16000
H950        H  0.85668227  0.62969210  0.33761158     0.16000
H951        H  0.86662109  0.99775661  0.44163816     0.16000
O952        O  0.68310809  0.75843445  0.39134345    -0.81900
C953        C  0.61315936  0.71903912  0.26267813     0.97400
O954        O  0.63922249  0.69372114  0.27522252    -0.71100
O955        O  0.69838292  0.73483150  0.29473657    -0.74700
Al956      Al  0.66761439  0.69668518  0.31968554     1.49000
C957        C  0.71721432  0.76973356  0.30352390     0.92700
O958        O  0.64905599  0.82801493  0.31914470    -0.80900
O959        O  0.59121099  0.74126359  0.37881614    -0.74400
Al960      Al  0.66555918  0.79216409  0.35508307     1.90100
O961        O  0.59202411  0.81776823  0.32912244    -0.73500
O962        O  0.58761783  0.67535126  0.32277991    -0.73400
O963        O  0.59783733  0.74934112  0.28111200    -0.79000
O964        O  0.64018505  0.65150063  0.34141857    -0.77200
O965        O  0.64308355  0.74388139  0.33465464    -1.13300
O966        O  0.69695541  0.69360782  0.36303353    -0.72500
C967        C  0.69477354  0.71760458  0.39112169     0.98200
C968        C  0.61830793  0.84461653  0.32090940     0.94600
Al969      Al  0.59513887  0.74567382  0.32894095     1.55600
O970        O  0.71097875  0.79118865  0.33129138    -0.77200
C971        C  0.61056035  0.64199989  0.32674985     0.98700
C972        C  0.60633038  0.77205222  0.39860174     0.93600
O973        O  0.62608765  0.80382963  0.38553033    -0.82500
C974        C  0.66249341  0.85143869  0.10578928     0.29900
C975        C  0.62438692  0.78741634  0.14199841     0.29900
C976        C  0.64297782  0.87211847  0.13728952    -0.06300
C977        C  0.63184621  0.82697797  0.08580580    -0.07100
C978        C  0.68557117  0.81041090  0.12351912    -0.07000
C979        C  0.62326608  0.83979678  0.15623543    -0.06300
C980        C  0.61371522  0.79217485  0.10285247    -0.07100
C981        C  0.66584379  0.77790207  0.14220776    -0.07000
C982        C  0.61363747  0.86395306  0.18663321    -0.32400
N983        N  0.62543368  0.90984778  0.18549407     0.14100
C984        C  0.64488070  0.91366608  0.15642937    -0.32400
H985        H  0.66253168  0.94305002  0.15203123     0.16100
C986        C  0.59732565  0.76436604  0.07654257    -0.31400
N987        N  0.60290357  0.78525833  0.04485343     0.12800
C988        C  0.62237580  0.82498267  0.05116287    -0.31400
C989        C  0.69065339  0.75086375  0.16250011    -0.31700
N990        N  0.72493154  0.76466535  0.15644815     0.13300
H991        H  0.68432417  0.72544469  0.18255927     0.16000
C992        C  0.72197575  0.80231210  0.13387049    -0.31700
H993        H  0.74463622  0.82415952  0.12761472     0.16000
H994        H  0.63390812  0.84689416  0.03108258     0.16000
H995        H  0.60169863  0.84816125  0.20926881     0.16000
H996        H  0.58593724  0.72951970  0.08000558     0.16000
O997        O  0.75907022  0.00591091  0.13347508    -0.81900
C998        C  0.83334593  0.97000569  0.26291466     0.97400
O999        O  0.80625477  0.94530443  0.25247355    -0.71100
O1000       O  0.74838628  0.99492645  0.23574153    -0.74700
Al1001     Al  0.77405582  0.95239283  0.20947559     1.49000
C1002       C  0.72643841  0.52404192  0.22358378     0.92700
O1003       O  0.79074958  0.58447728  0.20041187    -0.80900
O1004       O  0.84953517  0.99483412  0.14617328    -0.74400
Al1005     Al  0.77596847  0.54393716  0.16766062     1.90100
O1006       O  0.84873377  0.57183036  0.19513126    -0.73500
O1007       O  0.85241302  0.92878630  0.20013363    -0.73400
O1008       O  0.84668262  0.50236191  0.24342562    -0.79000
O1009       O  0.79790946  0.90592476  0.18559264    -0.77200
O1010       O  0.79843293  0.99788814  0.19077526    -1.13300
O1011       O  0.73923538  0.95060996  0.16921802    -0.72500
C1012       C  0.74164885  0.96955401  0.13874391     0.98200
C1013       C  0.82216693  0.59927926  0.20174963     0.94600
Al1014     Al  0.84674534  0.49941452  0.19547434     1.55600
O1015       O  0.73009647  0.54078553  0.19295071    -0.77200
C1016       C  0.82892257  0.89588321  0.19716289     0.98700
C1017       C  0.83801493  0.52652004  0.12536738     0.93600
O1018       O  0.81532165  0.55670217  0.13568399    -0.82500
O1019       O  0.56358959  0.02586260  0.26153206    -0.81900
C1020       C  0.68235517  0.99434617  0.34987356     0.97400
O1021       O  0.65158716  0.01241176  0.35304556    -0.71100
O1022       O  0.59687772  0.56047565  0.32854232    -0.74700
Al1023     Al  0.60686353  0.99453772  0.32850817     1.49000
C1024       C  0.60713486  0.59451078  0.30988890     0.92700
O1025       O  0.66289971  0.53904518  0.23150899    -0.80900
O1026       O  0.65789713  0.94299665  0.23303166    -0.74400
Al1027     Al  0.61455999  0.52882326  0.25159038     1.90100
O1028       O  0.69545542  0.00918332  0.27405412    -0.73500
O1029       O  0.63707618  0.90522326  0.28831396    -0.73400
O1030       O  0.68506284  0.95963575  0.32968164    -0.79000
O1031       O  0.61156658  0.92619359  0.33641677    -0.77200
O1032       O  0.62817158  0.99419215  0.28724119    -1.13100
O1033       O  0.56097254  0.98029689  0.30844004    -0.72500
C1034       C  0.54582083  0.00120742  0.28250347     0.98200
C1035       C  0.69408054  0.52884447  0.24458720     0.94600
Al1036     Al  0.66572819  0.95727534  0.28204498     1.55600
O1037       O  0.61961051  0.58690112  0.27954790    -0.77200
C1038       C  0.61852288  0.89502794  0.31390152     0.98700
C1039       C  0.62897110  0.94296702  0.21453863     0.93600
O1040       O  0.60495415  0.97374384  0.22062898    -0.82500
O1041       O  0.87694209  0.78026234  0.26348169    -0.81900
C1042       C  0.75753720  0.74737126  0.17558825     0.97400
O1043       O  0.78765139  0.76771800  0.17281998    -0.71100
O1044       O  0.84481874  0.81509891  0.19645229    -0.74700
Al1045     Al  0.83290634  0.74915344  0.19714768     1.49000
C1046       C  0.83326191  0.84868176  0.21411524     0.92700
O1047       O  0.77822682  0.79425444  0.29302470    -0.80900
O1048       O  0.78447850  0.69690277  0.29492307    -0.74400
Al1049     Al  0.82679665  0.78504533  0.27380131     1.90100
O1050       O  0.74548009  0.76047871  0.25168667    -0.73500
O1051       O  0.80591885  0.65769290  0.23823423    -0.73400
O1052       O  0.75599786  0.71230481  0.19646471    -0.79000
O1053       O  0.82772169  0.68150675  0.18872928    -0.77200
O1054       O  0.81237411  0.74797561  0.23881941    -1.13300
O1055       O  0.87818729  0.73361905  0.21753342    -0.72500
C1056       C  0.89392944  0.75365928  0.24328013     0.98200
C1057       C  0.74771948  0.77959958  0.28111914     0.94600
Al1058     Al  0.77596255  0.70964078  0.24466048     1.55600
O1059       O  0.82045197  0.84092178  0.24414632    -0.77200
C1060       C  0.82269939  0.64895205  0.21112027     0.98700
C1061       C  0.81109906  0.70380336  0.31610641     0.93600
O1062       O  0.83526325  0.73309733  0.30765528    -0.82500
C1063       C  0.17339483  0.57829936  0.09772586     0.29900
C1064       C  0.13872337  0.51360043  0.13654244     0.29900
C1065       C  0.15203614  0.59903927  0.12847074    -0.06300
C1066       C  0.14454526  0.54823139  0.07799589    -0.07100
C1067       C  0.19829537  0.54001960  0.11613678    -0.07000
C1068       C  0.13314148  0.56597589  0.14651614    -0.06300
C1069       C  0.12597190  0.51424324  0.09720411    -0.07100
C1070       C  0.17968996  0.50504486  0.13245683    -0.07000
C1071       C  0.11577266  0.58900454  0.17314953    -0.32400
N1072       N  0.12550852  0.63526921  0.17390548     0.14100
C1073       C  0.14819702  0.64126770  0.14714688    -0.32400
H1074       H  0.16444017  0.67271999  0.14485398     0.16100
C1075       C  0.10349198  0.49090017  0.07246061    -0.31400
N1076       N  0.10816986  0.51085037  0.04001564     0.12800
C1077       C  0.13326701  0.54531757  0.04366597    -0.31400
C1078       C  0.20308090  0.97711797  0.14572959    -0.31700
N1079       N  0.23670461  0.99517131  0.14574802     0.13300
H1080       H  0.19587942  0.94658663  0.16120990     0.16000
C1081       C  0.23449169  0.53328136  0.12810669    -0.31700
H1082       H  0.25620599  0.55828250  0.12587483     0.16000
H1083       H  0.14313255  0.56659654  0.02237824     0.16000
H1084       H  0.10047150  0.57188664  0.19311033     0.16000
H1085       H  0.08450793  0.96871851  0.07437129     0.16000
O1086       O  0.26223689  0.73791371  0.12965245    -0.81900
C1087       C  0.33057072  0.71816253  0.26267266     0.97400
O1088       O  0.30175592  0.69642285  0.25369715    -0.71100
O1089       O  0.24900836  0.75021003  0.23159670    -0.74700
Al1090     Al  0.27160537  0.69805548  0.21114036     1.49000
C1091       C  0.22317174  0.76843456  0.21452916     0.92700
O1092       O  0.29127626  0.82578347  0.19052558    -0.80900
O1093       O  0.35008855  0.72636924  0.14568133    -0.74400
Al1094     Al  0.27685498  0.78092445  0.16090384     1.90100
O1095       O  0.34949078  0.80768036  0.19102026    -0.73500
O1096       O  0.34912801  0.66484333  0.20393817    -0.73400
O1097       O  0.34547607  0.74545287  0.24182030    -0.79000
O1098       O  0.29289182  0.64294867  0.19571167    -0.77200
O1099       O  0.29848884  0.73699763  0.18861420    -1.13300
O1100       O  0.23826841  0.69071719  0.16919208    -0.72500
C1101       C  0.24315506  0.70371215  0.13729023     0.98200
C1102       C  0.32359173  0.83722094  0.19536517     0.94600
Al1103     Al  0.34560813  0.73601399  0.19441569     1.55600
O1104       O  0.22850177  0.78095773  0.18310988    -0.77200
C1105       C  0.32453952  0.63287025  0.20589739     0.98700
C1106       C  0.33979545  0.75749991  0.12346880     0.93600
O1107       O  0.31778210  0.78955062  0.13156882    -0.82500
C1108       C  0.26758476  0.82052260  0.41564490     0.29900
C1109       C  0.31513663  0.76706564  0.38162173     0.29900
C1110       C  0.29072241  0.84833240  0.38901091    -0.06300
C1111       C  0.29539986  0.79429209  0.43829775    -0.07100
C1112       C  0.25000439  0.78109331  0.39261384    -0.07000
C1113       C  0.31525650  0.82111506  0.37158674    -0.06300
C1114       C  0.31965013  0.76687482  0.42155168    -0.07100
C1115       C  0.27437010  0.75407605  0.37472765    -0.07000
C1116       C  0.32639960  0.84924457  0.34352727    -0.32400
N1117       N  0.31127050  0.89317997  0.34432040     0.14100
C1118       C  0.28800709  0.89176166  0.37107903    -0.32400
H1119       H  0.26793749  0.91862116  0.37516062     0.16100
C1120       C  0.34254604  0.74703820  0.44735376    -0.31400
N1121       N  0.33201487  0.76278354  0.47882716     0.12800
C1122       C  0.30333100  0.79156438  0.47346782    -0.31400
C1123       C  0.25373758  0.72681366  0.35110554    -0.31700
N1124       N  0.21794843  0.73403646  0.35553825     0.13300
H1125       H  0.26381431  0.70499107  0.33067156     0.16000
C1126       C  0.21543025  0.76833930  0.38005770    -0.31700
H1127       H  0.19042611  0.78547272  0.38594499     0.16000
H1128       H  0.28953331  0.80959103  0.49389773     0.16000
H1129       H  0.34132027  0.83709438  0.32181132     0.16000
H1130       H  0.36531137  0.72406324  0.44359294     0.16000
O1131       O  0.17249564  0.97841110  0.39648939    -0.81900
C1132       C  0.11915676  0.92975340  0.26157768     0.97400
O1133       O  0.14151490  0.90444273  0.27971237    -0.71100
O1134       O  0.19856377  0.94815327  0.30169388    -0.74700
Al1135     Al  0.16453042  0.91262070  0.32587105     1.49000
C1136       C  0.21611735  0.48342528  0.31002420     0.92700
O1137       O  0.14921018  0.54486067  0.31904667    -0.80900
O1138       O  0.08131165  0.96453795  0.37197928    -0.74400
Al1139     Al  0.16110161  0.51007803  0.35779699     1.90100
O1140       O  0.09132762  0.53705949  0.32163591    -0.73500
O1141       O  0.08414978  0.89426577  0.31926645    -0.73400
O1142       O  0.10189562  0.46096909  0.27698649    -0.79000
O1143       O  0.13277161  0.87121227  0.34743009    -0.77200
O1144       O  0.13889563  0.96214200  0.33503235    -1.13300
O1145       O  0.19025883  0.91341329  0.37088670    -0.72500
C1146       C  0.18556977  0.93800977  0.39815281     0.98200
C1147       C  0.11899557  0.56326581  0.31643098     0.94600
Al1148     Al  0.09185595  0.96478342  0.32289815     1.55600
O1149       O  0.20818547  0.50680061  0.33666798    -0.77200
C1150       C  0.10591091  0.86089611  0.32807286     0.98700
C1151       C  0.09510806  0.49507687  0.39438575     0.93600
O1152       O  0.11845389  0.52464892  0.38413789    -0.82500
O1153       O  0.06594969  0.73756620  0.24490433    -0.81900
C1154       C  0.18875115  0.71540213  0.33296083     0.97400
O1155       O  0.15705533  0.70824204  0.34430145    -0.71100
O1156       O  0.11350078  0.77812386  0.32873375    -0.74700
Al1157     Al  0.10898879  0.71331423  0.31890915     1.49000
C1158       C  0.10655435  0.81382484  0.30988630     0.92700
O1159       O  0.16283623  0.78232757  0.23658730    -0.80900
O1160       O  0.13410593  0.64468268  0.23427145    -0.74400
Al1161     Al  0.11420744  0.75690283  0.24328425     1.90100
O1162       O  0.18505958  0.71139586  0.23282137    -0.73500
O1163       O  0.15199816  0.62915831  0.30067318    -0.73400
O1164       O  0.19511405  0.70652754  0.30136865    -0.79000
O1165       O  0.09803886  0.64534759  0.31522852    -0.77200
O1166       O  0.12858006  0.71651149  0.27696701    -1.13300
O1167       O  0.06066737  0.72200910  0.30104060    -0.72500
C1168       C  0.04666719  0.72942448  0.27070156     0.98200
C1169       C  0.18768800  0.75491595  0.22738362     0.94600
Al1170     Al  0.16351623  0.67635803  0.26824922     1.55600
O1171       O  0.10497823  0.81000593  0.27635584    -0.77200
C1172       C  0.12159152  0.61497376  0.30947929     0.98700
C1173       C  0.12515666  0.66424106  0.20528565     0.93600
O1174       O  0.11955815  0.70925903  0.20408803    -0.82500
O1175       O  0.37274972  0.01833875  0.27160926    -0.81900
C1176       C  0.26505400  0.98156784  0.17165602     0.97400
O1177       O  0.29460373  0.00355952  0.17346400    -0.71100
O1178       O  0.34703431  0.55386684  0.20652446    -0.74700
Al1179     Al  0.33653136  0.98669482  0.20223575     1.49000
C1180       C  0.33020298  0.58475077  0.22282019     0.92700
O1181       O  0.27419678  0.51648312  0.29746194    -0.80900
O1182       O  0.28406253  0.91967063  0.29141817    -0.74400
Al1183     Al  0.32346401  0.51466544  0.27996771     1.90100
O1184       O  0.24209025  0.98459500  0.25457365    -0.73500
O1185       O  0.30864458  0.89081700  0.23513002    -0.73400
O1186       O  0.25934292  0.94894285  0.19403450    -0.79000
O1187       O  0.33398317  0.92005157  0.18940061    -0.77200
O1188       O  0.31145114  0.98116398  0.24166586    -1.13300
O1189       O  0.38007227  0.97197829  0.22652552    -0.72500
C1190       C  0.39293176  0.99445785  0.25249307     0.98200
C1191       C  0.24529872  0.49677475  0.28615169     0.94600
Al1192     Al  0.27643128  0.93940623  0.24317494     1.55600
O1193       O  0.31499123  0.57319357  0.25136680    -0.77200
C1194       C  0.32633930  0.88496564  0.20848172     0.98700
C1195       C  0.30885396  0.92613044  0.31448231     0.93600
O1196       O  0.33072766  0.96075244  0.31084291    -0.82500
C1197       C  0.25667393  0.89531299  0.44688845    -0.12400
C1198       C  0.24478885  0.84955192  0.43878109     0.04600
C1199       C  0.20865730  0.83810344  0.44467057    -0.07700
C1200       C  0.18365462  0.87456810  0.43996125    -0.08400
C1201       C  0.19664696  0.91974896  0.43236364    -0.03000
C1202       C  0.23165033  0.93168651  0.44429102     0.03800
N1203       N  0.24392165  0.97949845  0.44396010     0.66300
H1204       H  0.28515318  0.90384281  0.44793666     0.15200
H1205       H  0.15523262  0.86659908  0.43610108     0.14900
N1206       N  0.19776203  0.79113257  0.45441485     0.74000
O1207       O  0.25320985  0.99864387  0.47264004    -0.39400
O1208       O  0.25326184  0.99823645  0.41562800    -0.39400
O1209       O  0.22038363  0.76304408  0.46889705    -0.40100
O1210       O  0.16483640  0.77983091  0.45321208    -0.40100
C1211       C  0.37010789  0.75637377  0.34740091    -0.12400
C1212       C  0.34293307  0.73512510  0.36622235     0.04600
C1213       C  0.33244014  0.68928180  0.35620593    -0.07700
C1214       C  0.33186072  0.67926770  0.32057595    -0.08400
C1215       C  0.34658768  0.71256759  0.29794400    -0.03000
C1216       C  0.37181336  0.74557105  0.31203372     0.03800
N1217       N  0.39608107  0.77123234  0.29077453     0.66300
H1218       H  0.38426626  0.78713730  0.35758327     0.15200
H1219       H  0.31709319  0.64887427  0.31054428     0.14900
N1220       N  0.31828305  0.65645320  0.38083979     0.74000
O1221       O  0.38729401  0.81142820  0.27860473    -0.39400
O1222       O  0.42869824  0.75872303  0.29093903    -0.39400
O1223       O  0.28867026  0.63586421  0.37408353    -0.40100
O1224       O  0.33895976  0.64052972  0.40528529    -0.40100
C1225       C  0.35689437  0.79557563  0.03169873    -0.12400
C1226       C  0.34503504  0.75529955  0.01356688     0.04600
C1227       C  0.34004203  0.71275428  0.03209927    -0.07700
C1228       C  0.34329581  0.71254942  0.06881286    -0.08400
C1229       C  0.35031186  0.75468623  0.08698297    -0.03000
C1230       C  0.35910519  0.79582774  0.06823008     0.03800
N1231       N  0.36739592  0.83905476  0.08587935     0.66300
H1232       H  0.36064611  0.82836192  0.01740499     0.15200
H1233       H  0.33612034  0.68084278  0.08307521     0.14900
N1234       N  0.32666857  0.67161476  0.01446678     0.74000
O1235       O  0.39987526  0.84910254  0.09353828    -0.39400
O1236       O  0.34374118  0.87098416  0.08676049    -0.39400
O1237       O  0.33963897  0.63476219  0.51248505    -0.40100
O1238       O  0.29309358  0.66583139  0.00994746    -0.40100
C1239       C  0.17569280  0.65868754  0.07218075    -0.12400
C1240       C  0.19044231  0.61305266  0.07277816     0.04600
C1241       C  0.22808501  0.61093348  0.07141967    -0.07700
C1242       C  0.24707447  0.64181278  0.09368815    -0.08400
C1243       C  0.22786332  0.67914369  0.10763391    -0.03000
C1244       C  0.19530470  0.69342504  0.09042090     0.03800
N1245       N  0.18083669  0.73981874  0.09443754     0.66300
H1246       H  0.14727878  0.66419500  0.06584489     0.15200
H1247       H  0.27523995  0.63600110  0.10110192     0.14900
N1248       N  0.24550710  0.57365281  0.05334123     0.74000
O1249       O  0.19366971  0.77363526  0.07717817    -0.39400
O1250       O  0.15142116  0.74547134  0.10920386    -0.39400
O1251       O  0.27908352  0.56721119  0.05740126    -0.40100
O1252       O  0.22794366  0.55041649  0.03027857    -0.40100
C1253       C  0.15555213  0.45285940  0.22120996    -0.12400
C1254       C  0.12467563  0.42782710  0.22691209     0.04600
C1255       C  0.09761533  0.92900724  0.19742037    -0.07700
C1256       C  0.10163949  0.95509394  0.16600922    -0.08400
C1257       C  0.12893105  0.48463977  0.16792497    -0.03000
C1258       C  0.15204692  0.48992858  0.19872659     0.03800
N1259       N  0.17013834  0.53288901  0.20920444     0.66300
H1260       H  0.17705749  0.45503514  0.24126794     0.15200
H1261       H  0.08337431  0.94988380  0.14347914     0.14900
N1262       N  0.06767977  0.89795117  0.20084772     0.74000
O1263       O  0.15862849  0.55388923  0.23548824    -0.39400
O1264       O  0.20252408  0.53971858  0.20199829    -0.39400
O1265       O  0.03637902  0.91476394  0.20277433    -0.40100
O1266       O  0.07159293  0.85437717  0.19543741    -0.40100
C1267       C  0.08012207  0.54090620  0.48502397    -0.12400
C1268       C  0.09113337  0.50102427  0.00597025     0.04600
C1269       C  0.09726897  0.95945151  0.48811865    -0.07700
C1270       C  0.09261904  0.95619030  0.45127658    -0.08400
C1271       C  0.08566347  0.49546819  0.43179931    -0.03000
C1272       C  0.07719529  0.53799019  0.44839400     0.03800
N1273       N  0.06813957  0.57950823  0.42831345     0.66300
H1274       H  0.07627452  0.57490241  0.49714801     0.15200
H1275       H  0.09882342  0.92313041  0.43876814     0.14900
N1276       N  0.10904143  0.92326585  0.00741663     0.74000
O1277       O  0.03541263  0.59025777  0.42267672    -0.39400
O1278       O  0.09213842  0.60998254  0.42293741    -0.39400
O1279       O  0.08792635  0.88932051  0.01292336    -0.40100
O1280       O  0.14231076  0.91855192  0.01476859    -0.40100
C1281       C  0.94672793  0.74540050  0.28484474    -0.12400
C1282       C  0.93275620  0.74555405  0.25011588     0.04600
C1283       C  0.95606283  0.73723883  0.22263773    -0.07700
C1284       C  0.99271318  0.72996734  0.23023231    -0.08400
C1285       C  0.00705385  0.73100408  0.26489788    -0.03000
C1286       C  0.98348863  0.73810592  0.29249837     0.03800
N1287       N  0.99645378  0.74009978  0.32826519     0.66300
H1288       H  0.92902104  0.75119957  0.30623726     0.15200
H1289       H  0.01019037  0.72476531  0.20858056     0.14900
N1290       N  0.94346134  0.73907102  0.18671157     0.74000
O1291       O  0.00443158  0.77955568  0.34163806    -0.39400
O1292       O  0.99306359  0.70446249  0.34797242    -0.39400
O1293       O  0.94653141  0.77699900  0.16943969    -0.40100
O1294       O  0.93658744  0.70112194  0.17066344    -0.40100
C1295       C  0.49368479  0.99117111  0.24129300    -0.12400
C1296       C  0.50678222  0.99698490  0.27591895     0.04600
C1297       C  0.48238563  0.00070091  0.30301054    -0.07700
C1298       C  0.44531254  0.99940632  0.29491438    -0.08400
C1299       C  0.43213154  0.99391527  0.26016011    -0.03000
C1300       C  0.45674845  0.98933784  0.23318881     0.03800
N1301       N  0.44481410  0.98529309  0.19722235     0.66300
H1302       H  0.51229812  0.98844158  0.22028532     0.15200
H1303       H  0.42841232  0.48612339  0.31638112     0.14900
N1304       N  0.49648215  0.48596005  0.33917323     0.74000
O1305       O  0.44132190  0.02210575  0.17846174    -0.39400
O1306       O  0.44516511  0.94541016  0.18273298    -0.39400
O1307       O  0.49829648  0.52265533  0.35768985    -0.40100
O1308       O  0.49571614  0.97469302  0.36012028    -0.40100
C1309       C  0.66780924  0.93182004  0.08056284    -0.12400
C1310       C  0.68042776  0.88513282  0.08088094     0.04600
C1311       C  0.71730051  0.87893130  0.07574161    -0.07700
C1312       C  0.74021278  0.90960129  0.09404332    -0.08400
C1313       C  0.72479769  0.94957787  0.10820198    -0.03000
C1314       C  0.69104865  0.96572530  0.09497681     0.03800
N1315       N  0.67876807  0.01278145  0.10099214     0.66300
H1316       H  0.63919896  0.93931273  0.07800911     0.15200
H1317       H  0.76843038  0.90118119  0.09919350     0.14900
N1318       N  0.73064047  0.83947388  0.05683221     0.74000
O1319       O  0.68899694  0.04589026  0.08141500    -0.39400
O1320       O  0.65317244  0.01997124  0.12096619    -0.39400
O1321       O  0.71113262  0.82137399  0.03265659    -0.40100
O1322       O  0.76350088  0.82803860  0.05981092    -0.40100
C1323       C  0.57324747  0.74789283  0.21421311    -0.12400
C1324       C  0.60033506  0.71582363  0.22591622     0.04600
C1325       C  0.61775322  0.68925020  0.20055690    -0.07700
C1326       C  0.61640082  0.70618999  0.16614255    -0.08400
C1327       C  0.60146009  0.75084189  0.15935652    -0.03000
C1328       C  0.57315406  0.76528050  0.17996240     0.03800
N1329       N  0.54775649  0.80097082  0.16791233     0.66300
H1330       H  0.55531514  0.76359807  0.23247454     0.15200
H1331       H  0.63336983  0.68996178  0.14724244     0.14900
N1332       N  0.63792369  0.64728395  0.20874304     0.74000
O1333       O  0.52967324  0.82360679  0.18944350    -0.39400
O1334       O  0.54136089  0.80759884  0.13547451    -0.39400
O1335       O  0.62990565  0.61051073  0.19167805    -0.40100
O1336       O  0.66904083  0.65045503  0.22319469    -0.40100
C1337       C  0.57469851  0.75051362  0.45400361    -0.12400
C1338       C  0.60493155  0.76867848  0.43725391     0.04600
C1339       C  0.63601514  0.78012521  0.45810757    -0.07700
C1340       C  0.63817650  0.76536985  0.49282109    -0.08400
C1341       C  0.60306148  0.76418305  0.01055514    -0.03000
C1342       C  0.57433688  0.75007894  0.49106765     0.03800
N1343       N  0.53789443  0.74664380  0.00709345     0.66300
H1344       H  0.55049304  0.74153172  0.43863262     0.15200
H1345       H  0.65965907  0.77640955  0.00786657     0.14900
N1346       N  0.66149281  0.81501117  0.44734145     0.74000
O1347       O  0.51845793  0.78169966  0.01378585    -0.39400
O1348       O  0.52474635  0.70558251  0.00840450    -0.39400
O1349       O  0.65017957  0.85604405  0.43953418    -0.40100
O1350       O  0.69462457  0.80953124  0.45510515    -0.40100
C1351       C  0.71538769  0.62401621  0.45175212    -0.12400
C1352       C  0.75200678  0.63301595  0.44825343     0.04600
C1353       C  0.76325959  0.68018548  0.45283564    -0.07700
C1354       C  0.74058607  0.71439917  0.43782684    -0.08400
C1355       C  0.70693397  0.69938845  0.42455999    -0.03000
C1356       C  0.69176424  0.65784748  0.43766149     0.03800
N1357       N  0.65387079  0.64901334  0.43462514     0.66300
H1358       H  0.70584162  0.58880193  0.45760747     0.15200
H1359       H  0.75107451  0.74902957  0.43144600     0.14900
N1360       N  0.79957179  0.69164012  0.46364989     0.74000
O1361       O  0.64093981  0.62395355  0.41002050    -0.39400
O1362       O  0.63479085  0.65782973  0.46031596    -0.39400
O1363       O  0.82016757  0.71113805  0.44239736    -0.40100
O1364       O  0.80825053  0.69184214  0.49598632    -0.40100
C1365       C  0.87106581  0.50829575  0.30900418    -0.12400
C1366       C  0.85143207  0.46801710  0.29956266     0.04600
C1367       C  0.83426749  0.94263488  0.32670184    -0.07700
C1368       C  0.82926846  0.96783146  0.35798314    -0.08400
C1369       C  0.83506478  0.51991689  0.35780373    -0.03000
C1370       C  0.84961679  0.53882332  0.32689390     0.03800
N1371       N  0.82764736  0.56909618  0.30400892     0.66300
H1372       H  0.88795549  0.52428208  0.28967976     0.15200
H1373       H  0.81653270  0.95076984  0.37975050     0.14900
N1374       N  0.82322677  0.89476541  0.32364903     0.74000
O1375       O  0.84215835  0.59227161  0.27998881    -0.39400
O1376       O  0.79365860  0.56716464  0.30408348    -0.39400
O1377       O  0.84526410  0.86267762  0.33304142    -0.40100
O1378       O  0.79016722  0.88516269  0.31947170    -0.40100
C1379       C  0.86268806  0.56733534  0.03452800    -0.12400
C1380       C  0.85200073  0.52794632  0.01429319     0.04600
C1381       C  0.84387500  0.48555107  0.03191025    -0.07700
C1382       C  0.84250969  0.98349810  0.06905408    -0.08400
C1383       C  0.84832176  0.52618694  0.08828120    -0.03000
C1384       C  0.85991328  0.56724910  0.07105332     0.03800
N1385       N  0.86673117  0.60993619  0.08991713     0.66300
H1386       H  0.86860777  0.60034833  0.02134682     0.15200
H1387       H  0.83415402  0.95152437  0.08230528     0.14900
N1388       N  0.83346383  0.94229279  0.01336472     0.74000
O1389       O  0.89839149  0.61917435  0.10113808    -0.39400
O1390       O  0.84321435  0.64215871  0.08898601    -0.39400
O1391       O  0.85450498  0.90961149  0.51074888    -0.40100
O1392       O  0.80042739  0.93422934  0.00691907    -0.40100
C1393       C  0.77256387  0.60499718  0.92161137     0.29900
C1394       C  0.81515752  0.55138963  0.88194302     0.29900
C1395       C  0.79504721  0.63321812  0.89486196    -0.06300
C1396       C  0.79998547  0.57382164  0.94122787    -0.07100
C1397       C  0.75179096  0.56943286  0.89776121    -0.07000
C1398       C  0.81934602  0.60640209  0.87711292    -0.06300
C1399       C  0.82223819  0.54568275  0.92209411    -0.07100
C1400       C  0.77356463  0.54224330  0.87745968    -0.07000
C1401       C  0.83549967  0.63726844  0.85369158    -0.32400
N1402       N  0.81582871  0.67734981  0.84981943     0.14100
C1403       C  0.79029998  0.67452615  0.87444972    -0.32400
H1404       H  0.76811961  0.69898580  0.87566065     0.16100
C1405       C  0.84509874  0.52277585  0.94711747    -0.31400
N1406       N  0.83624831  0.53747217  0.97979246     0.12800
C1407       C  0.80861815  0.56801216  0.97593414    -0.31400
C1408       C  0.75023090  0.01024845  0.85839671    -0.31700
N1409       N  0.71530201  0.01770523  0.86646475     0.13300
H1410       H  0.75851965  0.98504288  0.83922086     0.16000
C1411       C  0.71626533  0.55542034  0.89005008    -0.31700
H1412       H  0.69216265  0.57074646  0.89972426     0.16000
H1413       H  0.79609279  0.58574306  0.99730629     0.16000
H1414       H  0.85826540  0.62990319  0.83804231     0.16000
H1415       H  0.86631991  0.99786096  0.94189578     0.16000
O1416       O  0.68190207  0.75656749  0.89309747    -0.81900
C1417       C  0.61467004  0.71914294  0.76278967     0.97400
O1418       O  0.64019729  0.69323046  0.77573981    -0.71100
O1419       O  0.69941779  0.73378293  0.79636980    -0.74700
Al1420     Al  0.66785691  0.69590174  0.82078686     1.49000
C1421       C  0.71842469  0.76838693  0.80559935     0.92700
O1422       O  0.65129533  0.82801829  0.82020396    -0.80900
O1423       O  0.59026524  0.74284778  0.87840896    -0.74400
Al1424     Al  0.66612167  0.79127804  0.85639378     1.90100
O1425       O  0.59370319  0.81860938  0.82832185    -0.73500
O1426       O  0.58755186  0.67619089  0.82228961    -0.73400
O1427       O  0.59968863  0.75001907  0.78091705    -0.79000
O1428       O  0.63940307  0.65118514  0.84220760    -0.77200
O1429       O  0.64350154  0.74363342  0.83533122    -1.13300
O1430       O  0.69659369  0.69227731  0.86454097    -0.72500
C1431       C  0.69375558  0.71576169  0.89278229     0.98200
C1432       C  0.62054190  0.84498829  0.82089024     0.94600
Al1433     Al  0.59575241  0.74653983  0.82853570     1.55600
O1434       O  0.71229007  0.78909137  0.83373782    -0.77200
C1435       C  0.61007315  0.64233833  0.82662029     0.98700
C1436       C  0.60499773  0.77394848  0.89824264     0.93600
O1437       O  0.62591914  0.80456388  0.88548878    -0.82500
C1438       C  0.66370096  0.85078906  0.60584321     0.29900
C1439       C  0.62517803  0.78735941  0.64215305     0.29900
C1440       C  0.64335931  0.87220536  0.63660200    -0.06300
C1441       C  0.63371848  0.82544550  0.58558952    -0.07100
C1442       C  0.68656511  0.81052946  0.62460879    -0.07000
C1443       C  0.62345426  0.84011546  0.65565317    -0.06300
C1444       C  0.61528990  0.79104750  0.60280840    -0.07100
C1445       C  0.66665479  0.77828325  0.64327321    -0.07000
C1446       C  0.61429811  0.86440946  0.68616195    -0.32400
N1447       N  0.62638080  0.91019349  0.68500168     0.14100
C1448       C  0.64567039  0.91382946  0.65573432    -0.32400
H1449       H  0.66334528  0.94301571  0.65100515     0.16100
C1450       C  0.59982162  0.76212029  0.57670481    -0.31400
N1451       N  0.60637753  0.78179879  0.54484297     0.12800
C1452       C  0.62562824  0.82176153  0.55076929    -0.31400
C1453       C  0.69123081  0.75119430  0.66371173    -0.31700
N1454       N  0.72552225  0.76490505  0.65777716     0.13300
H1455       H  0.68478387  0.72574793  0.68369400     0.16000
C1456       C  0.72284234  0.80242916  0.63512719    -0.31700
H1457       H  0.74560299  0.82414241  0.62891150     0.16000
H1458       H  0.63769346  0.84292788  0.53057882     0.16000
H1459       H  0.60255506  0.84865685  0.70893598     0.16000
H1460       H  0.58831962  0.72741992  0.58055754     0.16000
O1461       O  0.75928343  0.00698610  0.63216999    -0.81900
C1462       C  0.83212830  0.97119510  0.76247554     0.97400
O1463       O  0.80540576  0.94598515  0.75174426    -0.71100
O1464       O  0.74756106  0.99455552  0.73398727    -0.74700
Al1465     Al  0.77387709  0.95252526  0.70815614     1.49000
C1466       C  0.72590225  0.52443263  0.72289875     0.92700
O1467       O  0.79027272  0.58497721  0.70025627    -0.80900
O1468       O  0.84992840  0.99583575  0.64589231    -0.74400
Al1469     Al  0.77560350  0.54449573  0.66727496     1.90100
O1470       O  0.84828277  0.57191021  0.69533927    -0.73500
O1471       O  0.85250382  0.92949720  0.70021811    -0.73400
O1472       O  0.84575881  0.50223355  0.74317178    -0.79000
O1473       O  0.79842774  0.90602375  0.68484760    -0.77200
O1474       O  0.79823915  0.99834426  0.68984838    -1.13300
O1475       O  0.73986343  0.95059164  0.66727306    -0.72500
C1476       C  0.74235732  0.97008536  0.63697860     0.98200
C1477       C  0.82179809  0.59946997  0.70195590     0.94600
Al1478     Al  0.84617600  0.49961505  0.69524061     1.55600
O1479       O  0.72959271  0.54120786  0.69228648    -0.77200
C1480       C  0.82925174  0.89628611  0.69712758     0.98700
C1481       C  0.83832733  0.52813113  0.62538461     0.93600
O1482       O  0.81512579  0.55760979  0.63570958    -0.82500
O1483       O  0.56439604  0.02526182  0.76199351    -0.81900
C1484       C  0.68360120  0.99639918  0.84926171     0.97400
O1485       O  0.65258033  0.01363871  0.85257501    -0.71100
O1486       O  0.59640859  0.56083090  0.82802362    -0.74700
Al1487     Al  0.60811430  0.99445942  0.82825894     1.49000
C1488       C  0.60657950  0.59492081  0.80939697     0.92700
O1489       O  0.66245545  0.53916222  0.73094414    -0.80900
O1490       O  0.65899190  0.94375077  0.73247839    -0.74400
Al1491     Al  0.61431438  0.52861830  0.75118837     1.90100
O1492       O  0.69597028  0.01139111  0.77322771    -0.73500
O1493       O  0.63982695  0.90554862  0.78834514    -0.73400
O1494       O  0.68685297  0.96184126  0.82902048    -0.79000
O1495       O  0.61388489  0.92644481  0.83625287    -0.77200
O1496       O  0.62924374  0.99453842  0.78693651    -1.13100
O1497       O  0.56256742  0.97859081  0.80827739    -0.72500
C1498       C  0.54701495  0.99959186  0.78263087     0.98200
C1499       C  0.69371971  0.52959791  0.74404465     0.94600
Al1500     Al  0.66729186  0.95856110  0.78154444     1.55600
O1501       O  0.61897938  0.58728828  0.77896829    -0.77200
C1502       C  0.62112102  0.89532157  0.81381474     0.98700
C1503       C  0.62994251  0.94338395  0.71410144     0.93600
O1504       O  0.60565867  0.97370743  0.72050120    -0.82500
O1505       O  0.87776130  0.78094546  0.76336785    -0.81900
C1506       C  0.75797953  0.74761985  0.67693693     0.97400
O1507       O  0.78805805  0.76791218  0.67399162    -0.71100
O1508       O  0.84537384  0.81531406  0.69707137    -0.74700
Al1509     Al  0.83321541  0.74924310  0.69788374     1.49000
C1510       C  0.83360170  0.84908565  0.71445799     0.92700
O1511       O  0.77925280  0.79430189  0.79447632    -0.80900
O1512       O  0.78604963  0.69698577  0.79602501    -0.74400
Al1513     Al  0.82768222  0.78555277  0.77441985     1.90100
O1514       O  0.74633367  0.76047031  0.75337131    -0.73500
O1515       O  0.80648598  0.65767353  0.73907863    -0.73400
O1516       O  0.75633531  0.71267812  0.69792283    -0.79000
O1517       O  0.82765204  0.68168711  0.68935723    -0.77200
O1518       O  0.81300967  0.74817191  0.73970312    -1.13300
O1519       O  0.87839312  0.73330500  0.71797073    -0.72500
C1520       C  0.89447062  0.75371694  0.74332050     0.98200
C1521       C  0.74873758  0.77907498  0.78296743     0.94600
Al1522     Al  0.77674253  0.70973896  0.74591651     1.55600
O1523       O  0.82074139  0.84143525  0.74452488    -0.77200
C1524       C  0.82273287  0.64899490  0.71165737     0.98700
C1525       C  0.81279693  0.70426389  0.81697735     0.93600
O1526       O  0.83673134  0.73377896  0.80829475    -0.82500
C1527       C  0.17596995  0.58031969  0.59656135     0.29900
C1528       C  0.14040716  0.51696163  0.63577779     0.29900
C1529       C  0.15443923  0.60208547  0.62699839    -0.06300
C1530       C  0.14692096  0.55035494  0.57695073    -0.07100
C1531       C  0.20030992  0.54180352  0.61544408    -0.07000
C1532       C  0.13503404  0.56952480  0.64501753    -0.06300
C1533       C  0.12794764  0.51705202  0.59647144    -0.07100
C1534       C  0.18117112  0.50758092  0.63197003    -0.07000
C1535       C  0.11707038  0.59295218  0.67098208    -0.32400
N1536       N  0.12689853  0.63910485  0.67169619     0.14100
C1537       C  0.15020094  0.64476799  0.64527854    -0.32400
H1538       H  0.16617811  0.67613086  0.64294525     0.16100
C1539       C  0.10516420  0.49374458  0.57212268    -0.31400
N1540       N  0.11001908  0.51300002  0.53954347     0.12800
C1541       C  0.13550438  0.54705104  0.54267831    -0.31400
C1542       C  0.20578910  0.97482272  0.64726240    -0.31700
N1543       N  0.23950671  0.99236297  0.64661573     0.13300
H1544       H  0.19858279  0.94450921  0.66296770     0.16000
C1545       C  0.23640166  0.53388489  0.62727313    -0.31700
H1546       H  0.25860584  0.55808499  0.62484546     0.16000
H1547       H  0.14544577  0.56775051  0.52112368     0.16000
H1548       H  0.10137723  0.57605310  0.69080295     0.16000
H1549       H  0.08713347  0.96614481  0.57616386     0.16000
O1550       O  0.26315598  0.74015621  0.62934186    -0.81900
C1551       C  0.33158026  0.71750231  0.76248071     0.97400
O1552       O  0.30245120  0.69666004  0.75319587    -0.71100
O1553       O  0.25025995  0.75135759  0.73127121    -0.74700
Al1554     Al  0.27243555  0.69897120  0.71059671     1.49000
C1555       C  0.22469004  0.77041229  0.71432858     0.92700
O1556       O  0.29427151  0.82657748  0.69045484    -0.80900
O1557       O  0.35114360  0.72566397  0.64520000    -0.74400
Al1558     Al  0.27878345  0.78228125  0.66075961     1.90100
O1559       O  0.35210899  0.80648318  0.69067485    -0.73500
O1560       O  0.34965435  0.66423039  0.70321049    -0.73400
O1561       O  0.34727633  0.74418173  0.74169978    -0.79000
O1562       O  0.29319035  0.64338963  0.69510609    -0.77200
O1563       O  0.29983573  0.73750588  0.68826435    -1.13300
O1564       O  0.23913421  0.69253112  0.66855073    -0.72500
C1565       C  0.24403971  0.70591195  0.63674358     0.98200
C1566       C  0.32685818  0.83689919  0.69501513     0.94600
Al1567     Al  0.34702484  0.73519751  0.69398790     1.55600
O1568       O  0.23040426  0.78349149  0.68310403    -0.77200
C1569       C  0.32478934  0.63274816  0.70516228     0.98700
C1570       C  0.34125905  0.75700741  0.62299458     0.93600
O1571       O  0.31976669  0.78968233  0.63114772    -0.82500
C1572       C  0.26720848  0.82226440  0.91454430     0.29900
C1573       C  0.31464811  0.76685622  0.88177768     0.29900
C1574       C  0.29195542  0.84901296  0.88885040    -0.06300
C1575       C  0.29352128  0.79450651  0.93794567    -0.07100
C1576       C  0.24945056  0.78369919  0.89085437    -0.07000
C1577       C  0.31631903  0.82091133  0.87196542    -0.06300
C1578       C  0.31796784  0.76653754  0.92181328    -0.07100
C1579       C  0.27379944  0.75551448  0.87384377    -0.07000
C1580       C  0.32843342  0.84864265  0.84410549    -0.32400
N1581       N  0.31413973  0.89309552  0.84468566     0.14100
C1582       C  0.29037418  0.89242980  0.87094698    -0.32400
H1583       H  0.27045553  0.91968411  0.87441776     0.16100
C1584       C  0.34019237  0.74673245  0.94815270    -0.31400
N1585       N  0.32873414  0.76216322  0.97934526     0.12800
C1586       C  0.30033412  0.79132336  0.97328404    -0.31400
C1587       C  0.25331648  0.72717479  0.85091030    -0.31700
N1588       N  0.21760319  0.73557364  0.85444521     0.13300
H1589       H  0.26336926  0.70355430  0.83159063     0.16000
C1590       C  0.21499517  0.77123062  0.87791731    -0.31700
H1591       H  0.19014011  0.78934231  0.88279758     0.16000
H1592       H  0.28641549  0.81001146  0.99330706     0.16000
H1593       H  0.34329853  0.83586151  0.82249656     0.16000
H1594       H  0.36339011  0.72431058  0.94493556     0.16000
O1595       O  0.17440123  0.98245723  0.89507672    -0.81900
C1596       C  0.12061093  0.92856873  0.76158921     0.97400
O1597       O  0.14271236  0.90361236  0.78032764    -0.71100
O1598       O  0.20016056  0.94606494  0.80245559    -0.74700
Al1599     Al  0.16498052  0.91249645  0.82661687     1.49000
C1600       C  0.21656918  0.48476770  0.81029225     0.92700
O1601       O  0.14927682  0.54638982  0.81898650    -0.80900
O1602       O  0.08158079  0.96592519  0.87068365    -0.74400
Al1603     Al  0.16105058  0.51140557  0.85764619     1.90100
O1604       O  0.09142717  0.53829520  0.82123042    -0.73500
O1605       O  0.08443848  0.89502450  0.81873103    -0.73400
O1606       O  0.10274850  0.46261737  0.77661059    -0.79000
O1607       O  0.13227204  0.87223727  0.84815573    -0.77200
O1608       O  0.13952517  0.96271371  0.83436809    -1.13300
O1609       O  0.18981291  0.91464563  0.87192997    -0.72500
C1610       C  0.18651811  0.94162337  0.89817802     0.98200
C1611       C  0.11903341  0.56457009  0.81589021     0.94600
Al1612     Al  0.09238500  0.96524461  0.82187468     1.55600
O1613       O  0.20817088  0.50867294  0.83652008    -0.77200
C1614       C  0.10591561  0.86174410  0.82814962     0.98700
C1615       C  0.09493375  0.49538202  0.89410648     0.93600
O1616       O  0.11815322  0.52532770  0.88403232    -0.82500
O1617       O  0.06659340  0.74006758  0.74358684    -0.81900
C1618       C  0.18874321  0.71637261  0.83185409     0.97400
O1619       O  0.15710585  0.70901385  0.84310431    -0.71100
O1620       O  0.11411756  0.77910967  0.82801655    -0.74700
Al1621     Al  0.10941392  0.71457173  0.81765776     1.49000
C1622       C  0.10714243  0.81504604  0.80949895     0.92700
O1623       O  0.16403846  0.78472859  0.73613507    -0.80900
O1624       O  0.13435958  0.64762984  0.73220525    -0.74400
Al1625     Al  0.11508267  0.75940298  0.74232679     1.90100
O1626       O  0.18590346  0.71366915  0.73192185    -0.73500
O1627       O  0.15176252  0.62995084  0.79833844    -0.73400
O1628       O  0.19534185  0.70726319  0.80035626    -0.79000
O1629       O  0.09821677  0.64671542  0.81386820    -0.77200
O1630       O  0.12909925  0.71826561  0.77572047    -1.13300
O1631       O  0.06141797  0.72361996  0.79968032    -0.72500
C1632       C  0.04741345  0.73138896  0.76942177     0.98200
C1633       C  0.18887737  0.75722997  0.72687954     0.94600
Al1634     Al  0.16379534  0.67805247  0.76671646     1.55600
O1635       O  0.10568124  0.81179626  0.77593007    -0.77200
C1636       C  0.12154998  0.61611944  0.80798857     0.98700
C1637       C  0.12614724  0.66772866  0.70325345     0.93600
O1638       O  0.12068166  0.71274720  0.70246009    -0.82500
O1639       O  0.37423870  0.01848655  0.77183197    -0.81900
C1640       C  0.26821958  0.97887564  0.67196761     0.97400
O1641       O  0.29708606  0.00230006  0.67397556    -0.71100
O1642       O  0.34740864  0.55377102  0.70620572    -0.74700
Al1643     Al  0.33906857  0.98621805  0.70224673     1.49000
C1644       C  0.33026185  0.58472199  0.72216480     0.92700
O1645       O  0.27465113  0.51756682  0.79750762    -0.80900
O1646       O  0.28771492  0.91747717  0.79115446    -0.74400
Al1647     Al  0.32372777  0.51550529  0.77969795     1.90100
O1648       O  0.24418090  0.97925993  0.75414736    -0.73500
O1649       O  0.31481621  0.88996582  0.73597018    -0.73400
O1650       O  0.26352886  0.94509771  0.69371682    -0.79000
O1651       O  0.33699485  0.91958765  0.68890841    -0.77200
O1652       O  0.31392768  0.98005357  0.74160913    -1.13300
O1653       O  0.38237015  0.97220854  0.72663119    -0.72500
C1654       C  0.39462944  0.99480078  0.75278545     0.98200
C1655       C  0.24566438  0.49813030  0.78627486     0.94600
Al1656     Al  0.28033409  0.93642175  0.74310166     1.55600
O1657       O  0.31504008  0.57352883  0.75076186    -0.77200
C1658       C  0.33085105  0.88428710  0.70835678     0.98700
C1659       C  0.31177211  0.92538405  0.81456384     0.93600
O1660       O  0.33266989  0.96103870  0.81118878    -0.82500
C1661       C  0.25745058  0.89837813  0.94491178    -0.12400
C1662       C  0.24455895  0.85299869  0.93674119     0.04600
C1663       C  0.20831308  0.84278609  0.94309385    -0.07700
C1664       C  0.18404228  0.88027007  0.94102059    -0.08400
C1665       C  0.19745370  0.92503808  0.93297151    -0.03000
C1666       C  0.23306576  0.93558936  0.94376757     0.03800
N1667       N  0.24618485  0.98302959  0.94367063     0.66300
H1668       H  0.28607296  0.90600807  0.94567404     0.15200
H1669       H  0.15534673  0.87332648  0.93905423     0.14900
N1670       N  0.19689441  0.79657651  0.95356180     0.74000
O1671       O  0.25516098  0.00198341  0.97251784    -0.39400
O1672       O  0.25682651  0.00113979  0.91560404    -0.39400
O1673       O  0.21341804  0.77633528  0.97912272    -0.40100
O1674       O  0.16615210  0.78148062  0.94364279    -0.40100
C1675       C  0.37000772  0.75405966  0.84834336    -0.12400
C1676       C  0.34189960  0.73374167  0.86651422     0.04600
C1677       C  0.33052568  0.68819777  0.85603870    -0.07700
C1678       C  0.33117120  0.67844631  0.82028597    -0.08400
C1679       C  0.34686433  0.71147442  0.79812409    -0.03000
C1680       C  0.37223864  0.74361712  0.81291886     0.03800
N1681       N  0.39748273  0.76857659  0.79232240     0.66300
H1682       H  0.38462461  0.78419029  0.85898208     0.15200
H1683       H  0.31608348  0.64879457  0.80948014     0.14900
N1684       N  0.31296550  0.65647896  0.87956442     0.74000
O1685       O  0.38918519  0.80827805  0.77895815    -0.39400
O1686       O  0.43012769  0.75606421  0.79409120    -0.39400
O1687       O  0.29332286  0.62332174  0.86773740    -0.40100
O1688       O  0.32076173  0.65760638  0.91205072    -0.40100
C1689       C  0.36148434  0.79374483  0.53138012    -0.12400
C1690       C  0.34800568  0.75448317  0.51298761     0.04600
C1691       C  0.34011275  0.71273155  0.53141207    -0.07700
C1692       C  0.34306967  0.71222505  0.56813370    -0.08400
C1693       C  0.35178737  0.75371780  0.58649639    -0.03000
C1694       C  0.36262996  0.79412288  0.56795643     0.03800
N1695       N  0.37148876  0.83707730  0.58574180     0.66300
H1696       H  0.36694998  0.82613417  0.51718838     0.15200
H1697       H  0.33399057  0.68130567  0.58222158     0.14900
N1698       N  0.32329182  0.67374688  0.51367053     0.74000
O1699       O  0.40376354  0.84491833  0.59568906    -0.39400
O1700       O  0.34901113  0.87055516  0.58501623    -0.39400
O1701       O  0.34757280  0.63721998  0.01015746    -0.40100
O1702       O  0.29008614  0.67561013  0.50516023    -0.40100
C1703       C  0.17884243  0.65966198  0.56970329    -0.12400
C1704       C  0.19368352  0.61411502  0.57133045     0.04600
C1705       C  0.23143457  0.61230016  0.57124890    -0.07700
C1706       C  0.24943714  0.64335475  0.59407526    -0.08400
C1707       C  0.22961364  0.68088096  0.60691126    -0.03000
C1708       C  0.19765084  0.69479380  0.58833589     0.03800
N1709       N  0.18281780  0.74115656  0.59132549     0.66300
H1710       H  0.15065353  0.66492985  0.56220028     0.15200
H1711       H  0.27735770  0.63774019  0.60253119     0.14900
N1712       N  0.24985799  0.57559536  0.55348459     0.74000
O1713       O  0.19692044  0.77495129  0.57503868    -0.39400
O1714       O  0.15193313  0.74653783  0.60323934    -0.39400
O1715       O  0.28340821  0.56977430  0.55853026    -0.40100
O1716       O  0.23338000  0.55263075  0.52956139    -0.40100
C1717       C  0.15650210  0.46008998  0.72227527    -0.12400
C1718       C  0.12691660  0.43204373  0.72664163     0.04600
C1719       C  0.10012467  0.92650273  0.69738540    -0.07700
C1720       C  0.10436348  0.95277134  0.66615499    -0.08400
C1721       C  0.13060707  0.48886498  0.66753272    -0.03000
C1722       C  0.15320060  0.49577960  0.69860602     0.03800
N1723       N  0.17204864  0.53873797  0.70773270     0.66300
H1724       H  0.17697895  0.46411129  0.74317068     0.15200
H1725       H  0.08649668  0.94737635  0.64336961     0.14900
N1726       N  0.07043699  0.89495163  0.70037014     0.74000
O1727       O  0.16151066  0.56074892  0.73395845    -0.39400
O1728       O  0.20442074  0.54425242  0.69997603    -0.39400
O1729       O  0.03981574  0.91105096  0.70694103    -0.40100
O1730       O  0.07322206  0.85296989  0.68998170    -0.40100
C1731       C  0.07930875  0.53986118  0.98521607    -0.12400
C1732       C  0.09269771  0.50255678  0.50584747     0.04600
C1733       C  0.09645812  0.96294459  0.98701127    -0.07700
C1734       C  0.09296988  0.95898935  0.95015859    -0.08400
C1735       C  0.08527294  0.49523743  0.93160335    -0.03000
C1736       C  0.07685122  0.53753524  0.94852073     0.03800
N1737       N  0.06792099  0.57931742  0.92871932     0.66300
H1738       H  0.07546837  0.57371763  0.99754831     0.15200
H1739       H  0.10022268  0.92599804  0.93813420     0.14900
N1740       N  0.10968034  0.91907637  0.50784911     0.74000
O1741       O  0.03533608  0.58787671  0.92024029    -0.39400
O1742       O  0.09105443  0.61170183  0.92621483    -0.39400
O1743       O  0.08794625  0.88610526  0.51414663    -0.40100
O1744       O  0.14307325  0.91242406  0.51318808    -0.40100
C1745       C  0.94800359  0.74918137  0.78414189    -0.12400
C1746       C  0.93335038  0.74543825  0.74981464     0.04600
C1747       C  0.95608470  0.73327828  0.72256453    -0.07700
C1748       C  0.99293619  0.72724824  0.72985679    -0.08400
C1749       C  0.00784348  0.73243705  0.76401233    -0.03000
C1750       C  0.98481580  0.74244108  0.79153484     0.03800
N1751       N  0.99839861  0.74789903  0.82688119     0.66300
H1752       H  0.93079414  0.75756096  0.80545319     0.15200
H1753       H  0.01008165  0.71924752  0.70841714     0.14900
N1754       N  0.94262066  0.72900774  0.68706230     0.74000
O1755       O  0.00626812  0.78860470  0.83804584    -0.39400
O1756       O  0.99555898  0.71416585  0.84845013    -0.39400
O1757       O  0.94568823  0.76339259  0.66611005    -0.40100
O1758       O  0.93506974  0.68862177  0.67507514    -0.40100
C1759       C  0.49454673  0.99992530  0.74124488    -0.12400
C1760       C  0.50798628  0.99491972  0.77596624     0.04600
C1761       C  0.48378062  0.98844260  0.80313446    -0.07700
C1762       C  0.44667960  0.98915352  0.79518907    -0.08400
C1763       C  0.43349239  0.99460127  0.76044954    -0.03000
C1764       C  0.45769236  0.99943736  0.73325604     0.03800
N1765       N  0.44527481  0.00608729  0.69755933     0.66300
H1766       H  0.51278101  0.00464991  0.72005857     0.15200
H1767       H  0.42864907  0.47900449  0.81556760     0.14900
N1768       N  0.49683952  0.47556586  0.83785684     0.74000
O1769       O  0.44141285  0.04746846  0.68536599    -0.39400
O1770       O  0.44571432  0.97170890  0.67676581    -0.39400
O1771       O  0.49740125  0.50865844  0.85979674    -0.40100
O1772       O  0.50124121  0.94094090  0.85089685    -0.40100
C1773       C  0.66933754  0.93036801  0.57928605    -0.12400
C1774       C  0.68213418  0.88378143  0.58086989     0.04600
C1775       C  0.71908361  0.87729217  0.57597601    -0.07700
C1776       C  0.74187351  0.90924952  0.59310297    -0.08400
C1777       C  0.72632637  0.94985169  0.60611906    -0.03000
C1778       C  0.69249316  0.96508753  0.59255747     0.03800
N1779       N  0.68008454  0.01242058  0.59692764     0.66300
H1780       H  0.64070194  0.93765552  0.57661605     0.15200
H1781       H  0.77004261  0.90103719  0.59879676     0.14900
N1782       N  0.73273256  0.83616145  0.55921472     0.74000
O1783       O  0.68534773  0.04263576  0.57316900    -0.39400
O1784       O  0.65825296  0.02168801  0.62032982    -0.39400
O1785       O  0.71252452  0.81327306  0.53811495    -0.40100
O1786       O  0.76598637  0.82666867  0.56126045    -0.40100
C1787       C  0.57453636  0.74784771  0.71439443    -0.12400
C1788       C  0.60178900  0.71589291  0.72602336     0.04600
C1789       C  0.61896189  0.68918304  0.70058641    -0.07700
C1790       C  0.61730899  0.70599479  0.66611865    -0.08400
C1791       C  0.60229493  0.75063364  0.65938520    -0.03000
C1792       C  0.57409610  0.76493230  0.68005828     0.03800
N1793       N  0.54828505  0.79993968  0.66777184     0.66300
H1794       H  0.55662835  0.76353019  0.73268870     0.15200
H1795       H  0.63422596  0.68981870  0.64714614     0.14900
N1796       N  0.63906499  0.64715057  0.70867934     0.74000
O1797       O  0.53026915  0.82290971  0.68916088    -0.39400
O1798       O  0.54133974  0.80536751  0.63529759    -0.39400
O1799       O  0.63109452  0.61053107  0.69141178    -0.40100
O1800       O  0.67008225  0.65013990  0.72337028    -0.40100
C1801       C  0.57188599  0.75412846  0.95342981    -0.12400
C1802       C  0.60230089  0.77217058  0.93687677     0.04600
C1803       C  0.63299074  0.78430002  0.95802260    -0.07700
C1804       C  0.63494317  0.76988517  0.99277924    -0.08400
C1805       C  0.60640646  0.76002937  0.51082540    -0.03000
C1806       C  0.57115124  0.75403810  0.99052351     0.03800
N1807       N  0.54115543  0.74331809  0.50789502     0.66300
H1808       H  0.54795963  0.74453582  0.93785322     0.15200
H1809       H  0.66299572  0.77162193  0.50776824     0.14900
N1810       N  0.65836698  0.81925447  0.94720011     0.74000
O1811       O  0.52298531  0.77883421  0.51622517    -0.39400
O1812       O  0.52682273  0.70289596  0.50810545    -0.39400
O1813       O  0.64698376  0.86022957  0.93929239    -0.40100
O1814       O  0.69159662  0.81359067  0.95432397    -0.40100
C1815       C  0.71717740  0.62212031  0.95287949    -0.12400
C1816       C  0.75334956  0.63299373  0.94877569     0.04600
C1817       C  0.76331301  0.68054964  0.95335358    -0.07700
C1818       C  0.73929652  0.71386909  0.93938321    -0.08400
C1819       C  0.70599801  0.69737348  0.92622483    -0.03000
C1820       C  0.69212187  0.65444885  0.93881618     0.03800
N1821       N  0.65457589  0.64226101  0.93431375     0.66300
H1822       H  0.70926721  0.58607581  0.95835754     0.15200
H1823       H  0.74857978  0.74925861  0.93346214     0.14900
N1824       N  0.79923814  0.69372765  0.96428332     0.74000
O1825       O  0.64398361  0.60072832  0.94050687    -0.39400
O1826       O  0.63132212  0.67413886  0.92846895    -0.39400
O1827       O  0.81905518  0.71517897  0.94331134    -0.40100
O1828       O  0.80782436  0.69383376  0.99664281    -0.40100
C1829       C  0.87091392  0.50706318  0.80847041    -0.12400
C1830       C  0.85041548  0.46745105  0.79911665     0.04600
C1831       C  0.83300552  0.94470035  0.82663924    -0.07700
C1832       C  0.82928931  0.96977734  0.85821807    -0.08400
C1833       C  0.83520866  0.51998274  0.85735107    -0.03000
C1834       C  0.85032923  0.53845333  0.82655943     0.03800
N1835       N  0.82950099  0.57026955  0.80389354     0.66300
H1836       H  0.88806566  0.52233962  0.78906637     0.15200
H1837       H  0.81679939  0.95285476  0.88018591     0.14900
N1838       N  0.82118766  0.89712375  0.82361797     0.74000
O1839       O  0.84488452  0.59294554  0.78015049    -0.39400
O1840       O  0.79547129  0.57014163  0.80374410    -0.39400
O1841       O  0.84203616  0.86442473  0.83443291    -0.40100
O1842       O  0.78835856  0.88840613  0.81667275    -0.40100
C1843       C  0.86118142  0.57506566  0.53571162    -0.12400
C1844       C  0.85445294  0.53490936  0.51483127     0.04600
C1845       C  0.85097609  0.49086425  0.53181283    -0.07700
C1846       C  0.84329806  0.98476008  0.56881871    -0.08400
C1847       C  0.85005848  0.53014460  0.58870386    -0.03000
C1848       C  0.85813001  0.57329377  0.57218102     0.03800
N1849       N  0.86114896  0.61605724  0.59174341     0.66300
H1850       H  0.86413181  0.60923036  0.52307903     0.15200
H1851       H  0.83494922  0.95282130  0.58211887     0.14900
N1852       N  0.83300808  0.94380800  0.51323992     0.74000
O1853       O  0.89184945  0.63020029  0.60256077    -0.39400
O1854       O  0.83456904  0.64377409  0.59230654    -0.39400
O1855       O  0.85604908  0.90952248  0.01000461    -0.40100
O1856       O  0.79987018  0.93771660  0.50594491    -0.40100
loop_ 
_geom_bond_atom_site_label_1 
_geom_bond_atom_site_label_2 
_geom_bond_distance 
_geom_bond_site_symmetry_2 
_ccdc_geom_bond_type 
C1            C3   1.566       .  S
C1            C5   1.544       .  S
C1            C4   1.516       .  S
C1          C424   1.514       .  S
C2            C6   1.573       .  S
C2            C8   1.570       .  S
C2            C7   1.550       .  S
C2          C441   1.516       .  S
C3           C11   1.408       .  A
C3            C6   1.380       .  A
C4           C15   1.357       .  A
C4            C7   1.384       .  A
C5           C19   1.395       .  A
C5            C8   1.384       .  A
C6            C9   1.400       .  A
C7           C13   1.403       .  A
C8          C944   1.398       .  A
C9           N10   1.353       .  A
C9           H22   1.078       .  S
N10          C11   1.367       .  A
N10         C133   1.463       .  S
C11          H12   1.077       .  S
C13          N14   1.371       .  A
C13         H951   1.082   1_545  S
N14          C15   1.344       .  A
N14         C916   1.440       .  S
C15          H21   1.084       .  S
C16         C936   1.398       .  A
C16          N17   1.365       .  A
C16          H18   1.080       .  S
N17         C947   1.358       .  A
N17          C92   1.457       .  S
C19         N945   1.359       .  A
C19          H20   1.076       .  S
H23         C941   1.082       .  S
O24          C39   1.235       .  A
O24         Al32   1.780       .  S
C25          O35   1.265       .  A
C25          O26   1.278       .  A
C25         C396   1.466       .  S
O26         Al28   1.961       .  S
O27          C29   1.250       .  A
O27         Al28   1.857       .  S
Al28         O36   1.848       .  S
Al28         O38   1.945       .  S
Al28         O37   1.733       .  S
C29          O42   1.256       .  A
C29         C129   1.473       .  S
O30          C40   1.240       .  A
O30         Al32   1.786       .  S
O31          C44   1.273       .  A
O31         Al41   1.923       .  S
Al32         O45   1.934       .  S
Al32         O42   1.950       .  S
Al32         O37   1.771       .  S
O33          C40   1.285       .  A
O33         Al41   2.042       .  S
O34          C43   1.275       .  A
O34         Al41   2.023       .  S
O35         Al41   1.833       .  S
O36          C43   1.243       .  A
O37         Al41   1.783       .  S
O38          C39   1.281       .  A
C39         C427   1.428       .  S
C40         C110   1.448       .  S
C43          C96   1.499       .  S
C44          O45   1.271       .  A
C44         C410   1.480       .  S
C46          C48   1.549       .  S
C46          C50   1.571       .  S
C46          C49   1.514       .  S
C46         C382   1.514       .  S
C47          C51   1.585       .  S
C47          C53   1.563       .  S
C47          C52   1.532       .  S
C47         C399   1.506       .  S
C48          C56   1.390       .  A
C48          C51   1.388       .  A
C49          C60   1.354       .  A
C49          C52   1.369       .  A
C50          C64   1.409       .  A
C50          C53   1.389       .  A
C51          C54   1.411       .  A
C52          C58   1.399       .  A
C53          C61   1.400       .  A
C54          N55   1.371       .  A
C54          H67   1.082       .  S
N55          C56   1.355       .  A
N55         C111   1.460       .  S
C56          H57   1.064       .  S
C58          N59   1.364       .  A
C58          H68   1.082       .  S
N59          C60   1.354       .  A
N59         C413   1.443       .  S
C60          H66   1.084       .  S
C61          N62   1.360       .  A
C61          H63   1.079       .  S
N62          C64   1.363       .  A
N62         C114   1.466       .  S
C64          H65   1.078       .  S
O69          C84   1.235       .  A
O69       Al1005   1.772       .  S
C70          O71   1.276       .  A
C70        O1008   1.264       .  A
C70        C1366   1.492       .  S
O71         Al73   1.994       .  S
O72        C1002   1.252       .  A
O72         Al73   1.861       .  S
Al73         O81   1.853       .  S
Al73         O83   1.965       .  S
Al73         O82   1.738       .  S
C74          O87   1.271       .  A
C74        O1000   1.253   1_545  A
C74         C107   1.483       .  S
O75          C85   1.240       .  A
O75         Al77   1.779       .  S
O76        C1017   1.263       .  A
O76       Al1014   1.896       .  S
Al77         O90   1.974       .  S
Al77         O87   1.999       .  S
Al77        O997   1.775       .  S
Al77       O1010   1.777   1_545  S
O78          C85   1.290       .  A
O78         Al86   2.044   1_545  S
O79          C88   1.280       .  A
O79       Al1014   2.022       .  S
O80         C998   1.264   1_545  A
O80         Al86   1.831   1_545  S
O81          C88   1.247       .  A
O82       Al1005   1.778       .  S
O82       Al1014   1.760       .  S
O83          C84   1.283       .  A
C84         C385   1.418       .  S
C85         C132   1.454       .  S
Al86       O1004   1.890       .  S
Al86       O1007   2.014       .  S
Al86       O1010   1.762       .  S
C88         C118   1.489       .  S
C89          O90   1.277       .  A
C89        O1004   1.262   1_545  A
C89         C455   1.480       .  S
O91         C106   1.264       .  A
O91       Al1027   1.902       .  S
C92         O102   1.260       .  A
C92          O93   1.264       .  A
O93         Al95   1.942       .  S
O94          C96   1.260       .  A
O94       Al1023   1.920   1_545  S
Al95        O103   1.957       .  S
Al95        O105   1.884       .  S
Al95       O1022   1.922       .  S
Al95        O104   1.791       .  S
C96         O109   1.286       .  A
O97         C107   1.273       .  A
O97         Al99   2.006       .  S
O98         C111   1.260       .  A
O98        Al108   1.929       .  S
Al99        O109   1.975       .  S
Al99       O1019   1.905       .  S
Al99       O1040   1.991   1_545  S
Al99       O1032   1.762   1_545  S
O100       C1035   1.254       .  A
O100       Al108   1.868       .  S
O101        C110   1.251       .  A
O101       Al108   1.836       .  S
O102       Al108   1.925       .  S
O103        C110   1.271       .  A
O104       Al108   1.762       .  S
O104      Al1027   1.762       .  S
O105        C106   1.259       .  A
C106        C368   1.470       .  S
C107       O1028   1.254       .  A
C111        O112   1.277       .  A
O112      Al1027   1.990       .  S
O113        C128   1.269       .  A
O113       Al121   1.922       .  S
C114        O124   1.268       .  A
C114        O115   1.266       .  A
O115       Al117   1.951       .  S
O116        C118   1.257       .  A
O116       Al117   1.920       .  S
Al117       O125   1.952       .  S
Al117       O127   1.873       .  S
Al117       O126   1.794       .  S
C118        O131   1.279       .  A
O119        C129   1.272       .  A
O119       Al121   1.992       .  S
O120        C133   1.265       .  A
O120       Al130   1.957       .  S
Al121       O134   1.972       .  S
Al121       O131   1.953       .  S
Al121       O126   1.772       .  S
O122        C129   1.251       .  A
O122       Al130   1.859       .  S
O123        C132   1.257       .  A
O123       Al130   1.868       .  S
O124       Al130   1.950       .  S
O125        C132   1.269       .  A
O126       Al130   1.756       .  S
O127        C128   1.261       .  A
C128        C354   1.470       .  S
C133        O134   1.274       .  A
C135        C137   1.566       .  S
C135        C139   1.567       .  S
C135        C138   1.544       .  S
C135        C312   1.521       .  S
C136        C140   1.550       .  S
C136        C142   1.554       .  S
C136        C141   1.556       .  S
C136        C329   1.508   1_545  S
C137        C145   1.413       .  A
C137        C140   1.368       .  A
C138        C149   1.364       .  A
C138        C141   1.405       .  A
C139        C153   1.415       .  A
C139        C142   1.368       .  A
C140        C143   1.393       .  A
C141        C147   1.402   1_545  A
C142       C1078   1.392   1_545  A
C143        N144   1.356       .  A
C143        H156   1.086       .  S
N144        C145   1.366       .  A
N144        C245   1.458       .  S
C145        H146   1.053       .  S
C147        N148   1.374   1_565  A
C147       H1085   1.082       .  S
N148        C149   1.352       .  A
N148        C340   1.449       .  S
C149        H155   1.083       .  S
C150       C1070   1.392       .  A
C150        N151   1.349       .  A
C150        H152   1.082       .  S
N151       C1081   1.369       .  A
N151        C248   1.460       .  S
C153       N1079   1.371   1_545  A
C153        H154   1.078       .  S
H157       C1075   1.082       .  S
O158        C173   1.239       .  A
O158       Al166   1.774       .  S
C159        O169   1.251       .  A
C159        O160   1.270       .  A
C159        C287   1.457       .  S
O160       Al162   1.931       .  S
O161        C163   1.245       .  A
O161       Al162   1.891       .  S
Al162       O170   1.863       .  S
Al162       O172   1.992       .  S
Al162       O171   1.734       .  S
C163        O176   1.271       .  A
C163        C241   1.478       .  S
O164        C174   1.249       .  A
O164       Al166   1.771       .  S
O165        C178   1.264       .  A
O165       Al175   1.898       .  S
Al166       O179   1.944       .  S
Al166       O176   2.022       .  S
Al166       O171   1.794       .  S
O167        C174   1.291       .  A
O167       Al175   2.031       .  S
O168        C177   1.288       .  A
O168       Al175   2.043       .  S
O169       Al175   1.838       .  S
O170        C177   1.254       .  A
O171       Al175   1.756       .  S
O172        C173   1.288       .  A
C173        C315   1.428       .  S
C174        C266   1.443       .  S
C177        C252   1.512       .  S
C178        O179   1.271       .  A
C178        C301   1.469       .  S
C180        C182   1.561       .  S
C180        C184   1.551       .  S
C180        C183   1.509       .  S
C180        C270   1.501       .  S
C181        C185   1.575       .  S
C181        C187   1.572       .  S
C181        C186   1.529       .  S
C181        C284   1.517       .  S
C182        C190   1.399       .  A
C182        C185   1.387       .  A
C183        C194   1.362       .  A
C183        C186   1.374       .  A
C184        C198   1.398       .  A
C184        C187   1.391       .  A
C185        C188   1.405       .  A
C186        C192   1.389       .  A
C187        C195   1.398       .  A
C188        N189   1.367       .  A
C188        H201   1.076       .  S
N189        C190   1.365       .  A
N189        C267   1.462       .  S
C190        H191   1.082       .  S
C192        N193   1.360       .  A
C192        H202   1.082       .  S
N193        C194   1.349       .  A
N193        C762   1.429       .  S
C194        H200   1.083       .  S
C195        N196   1.363       .  A
C195        H197   1.079       .  S
N196        C198   1.360       .  A
N196        C226   1.457       .  S
C198        H199   1.081       .  S
O203        C218   1.243       .  A
O203      Al1139   1.832       .  S
C204        O205   1.273       .  A
C204       O1142   1.274       .  A
C204       C1254   1.434       .  S
O205       Al207   1.930       .  S
O206       C1136   1.254       .  A
O206       Al207   1.883       .  S
Al207       O215   1.874       .  S
Al207       O217   1.924       .  S
Al207       O216   1.742       .  S
C208        O221   1.263   1_565  A
C208       O1134   1.254       .  A
C208        C263   1.491   1_565  S
O209        C219   1.236       .  A
O209       Al211   1.802       .  S
O210       C1151   1.271       .  A
O210       Al220   1.919       .  S
Al211       O224   1.957       .  S
Al211       O221   1.958       .  S
Al211      O1131   1.825   1_545  S
Al211      O1144   1.773   1_545  S
O212        C219   1.291       .  A
O212      Al1148   2.081   1_545  S
O213        C222   1.274       .  A
O213       Al220   2.016       .  S
O214       C1132   1.274       .  A
O214      Al1148   1.871       .  S
O215        C222   1.251       .  A
O216       Al220   1.794       .  S
O216      Al1139   1.771       .  S
O217        C218   1.274       .  A
C218        C273   1.447       .  S
C219        C244   1.488       .  S
Al220      O1140   2.076       .  S
Al220      O1142   1.871       .  S
C222        C230   1.508       .  S
C223        O224   1.275   1_565  A
C223       O1138   1.272       .  A
C223        C343   1.490       .  S
O225        C240   1.262       .  A
O225       Al233   1.876       .  S
C226        O236   1.266       .  A
C226        O227   1.286       .  A
O227       Al229   1.995       .  S
O228        C230   1.253       .  A
O228       Al229   1.875       .  S
Al229       O237   1.967       .  S
Al229       O239   1.905       .  S
Al229       O238   1.788       .  S
C230        O243   1.285       .  A
O231        C241   1.270       .  A
O231       Al233   1.971       .  S
O232        C245   1.262       .  A
O232       Al242   1.886       .  S
Al233       O246   2.042       .  S
Al233       O243   2.012       .  S
Al233       O238   1.778       .  S
O234        C241   1.253       .  A
O234       Al242   1.879       .  S
O235        C244   1.258       .  A
O235       Al242   1.876       .  S
O236       Al242   1.897       .  S
O237        C244   1.253       .  A
O238       Al242   1.766       .  S
O239        C240   1.264       .  A
C240        C357   1.477       .  S
C245        O246   1.290       .  A
O247        C262   1.269       .  A
O247      Al1183   1.925       .  S
C248        O258   1.276       .  A
C248        O249   1.262       .  A
O249       Al251   1.920       .  S
O250        C252   1.261       .  A
O250      Al1179   1.937   1_545  S
Al251       O259   1.955       .  S
Al251       O261   1.869       .  S
Al251      O1178   1.934       .  S
Al251       O260   1.811       .  S
C252        O265   1.288       .  A
O253        C263   1.268       .  A
O253       Al255   1.976       .  S
O254        C267   1.256       .  A
O254       Al264   1.913       .  S
Al255       O265   1.990       .  S
Al255      O1175   1.925       .  S
Al255      O1196   2.000   1_545  S
Al255      O1188   1.774   1_545  S
O256       C1191   1.262       .  A
O256       Al264   1.876       .  S
O257        C266   1.246       .  A
O257       Al264   1.866       .  S
O258       Al264   1.971       .  S
O259        C266   1.265       .  A
O260       Al264   1.758       .  S
O260      Al1183   1.770       .  S
O261        C262   1.259       .  A
C262        C371   1.466       .  S
C263       O1184   1.259   1_545  A
C267        O268   1.282       .  A
O268      Al1183   2.001       .  S
C269        C270   1.403       .  A
C269        C274   1.388       .  A
C269        H276   1.084       .  S
C270        C271   1.409       .  A
C271        C272   1.395       .  A
C271        N278   1.439       .  S
C272        C273   1.399       .  A
C272        H277   1.083       .  S
C273        C274   1.400       .  A
C274        N275   1.428       .  S
N275        O279   1.261       .  A
N275        O280   1.262       .  A
N278        O282   1.263       .  A
N278        O281   1.263       .  A
C283        C284   1.398       .  A
C283        C288   1.392       .  A
C283        H290   1.083       .  S
C284        C285   1.407       .  A
C285        C286   1.392       .  A
C285        N292   1.433       .  S
C286        C287   1.399       .  A
C286        H291   1.084       .  S
C287        C288   1.414       .  A
C288        N289   1.431       .  S
N289        O293   1.262       .  A
N289        O294   1.262       .  A
N292        O296   1.262       .  A
N292        O295   1.262       .  A
C297        C298   1.401       .  A
C297        C302   1.394       .  A
C297        H304   1.084       .  S
C298        C299   1.406       .  A
C298        N657   1.428   1_554  S
C299        C300   1.402       .  A
C299        N306   1.428       .  S
C300        C301   1.404       .  A
C300        H305   1.084       .  S
C301        C302   1.407       .  A
C302        N303   1.429       .  S
N303        O307   1.262       .  A
N303        O308   1.262       .  A
N306        O310   1.262       .  A
N306        O773   1.262       .  A
O309        N770   1.262       .  A
C311        C312   1.403       .  A
C311        C316   1.397       .  A
C311        H318   1.083       .  S
C312        C313   1.402       .  A
C313        C314   1.392       .  A
C313        N320   1.434       .  S
C314        C315   1.397       .  A
C314        H319   1.084       .  S
C315        C316   1.410       .  A
C316        N317   1.431       .  S
N317        O321   1.262       .  A
N317        O322   1.262       .  A
N320        O324   1.262       .  A
N320        O323   1.263       .  A
C325        C326   1.370       .  A
C325        C330   1.352       .  A
C325        H332   1.084       .  S
C326       C1255   1.415       .  A
C326       C1132   1.438       .  S
C327        C328   1.414       .  A
C327       C1254   1.416       .  A
C327        N334   1.427       .  S
C328       C1257   1.405       .  A
C328        H333   1.082       .  S
C329        C330   1.438       .  A
C329       C1256   1.404       .  A
C330        N331   1.440   1_565  S
N331        O335   1.261       .  A
N331        O336   1.260       .  A
N334        O338   1.262       .  A
N334        O337   1.262       .  A
C339        C344   1.402       .  A
C339        C804   1.406       .  A
C339        H346   1.084       .  S
C340        C803   1.409   1_554  A
C340       C1733   1.411   1_544  A
C341        C342   1.411       .  A
C341       C1732   1.411       .  A
C341        N812   1.428       .  S
C342       C1271   1.408       .  A
C342        H347   1.084       .  S
C343        C344   1.409   1_565  A
C343       C1270   1.409       .  A
C344        N345   1.429       .  S
N345        O349   1.262       .  A
N345        O350   1.262       .  A
N348        C805   1.428   1_554  S
N348        O352   1.262       .  A
N348        O351   1.262       .  A
C353        C354   1.401       .  A
C353        C358   1.397       .  A
C353        H360   1.084       .  S
C354        C355   1.410       .  A
C355        C356   1.394       .  A
C355        N362   1.430       .  S
C356        C357   1.404   1_655  A
C356        H361   1.084   1_655  S
C357        C358   1.414   1_455  A
C358        N359   1.429       .  S
N359        O363   1.262   1_655  A
N359        O364   1.262       .  A
N362        O366   1.262       .  A
N362        O365   1.262       .  A
C367        C368   1.402       .  A
C367        C372   1.392       .  A
C367        H374   1.084       .  S
C368        C369   1.412       .  A
C369        C370   1.398       .  A
C369       N1304   1.429       .  S
C370        C371   1.401       .  A
C370       H1303   1.084       .  S
C371        C372   1.409       .  A
C372        N373   1.429       .  S
N373        O377   1.262       .  A
N373        O378   1.262       .  A
H375       C1298   1.084   1_545  S
N376       C1297   1.429       .  S
N376       O1308   1.262   1_545  A
N376        O379   1.262       .  A
O380       N1304   1.262       .  A
C381        C382   1.403       .  A
C381        C386   1.391       .  A
C381        H388   1.083       .  S
C382        C383   1.403       .  A
C383        C384   1.387       .  A
C383        N390   1.436       .  S
C384        C385   1.393       .  A
C384        H389   1.084       .  S
C385        C386   1.405       .  A
C386        N387   1.432       .  S
N387        O391   1.261       .  A
N387        O392   1.262       .  A
N390        O394   1.263       .  A
N390        O393   1.261       .  A
C395        C396   1.411       .  A
C395        C400   1.392       .  A
C395        H402   1.083       .  S
C396        C397   1.411       .  A
C397        C398   1.392       .  A
C397        N404   1.428       .  S
C398        C399   1.396       .  A
C398        H403   1.084       .  S
C399        C400   1.402       .  A
C400        N401   1.440       .  S
N401        O405   1.263       .  A
N401        O406   1.262       .  A
N404        O408   1.262       .  A
N404        O407   1.262       .  A
C409        C410   1.411       .  A
C409        C414   1.415       .  A
C409        H416   1.083       .  S
C410        C411   1.413       .  A
C411        C412   1.382       .  A
C411        N418   1.437       .  S
C412        C877   1.398       .  A
C412        H881   1.077       .  S
C413        C876   1.398   1_554  A
C413        C878   1.412   1_554  A
C414        C877   1.410       .  A
C414        N879   1.426       .  S
N415        C878   1.426   1_554  S
N415        O419   1.262       .  A
N415        O420   1.262       .  A
H417        C876   1.079   1_554  S
N418        O422   1.262       .  A
N418        O421   1.264       .  A
C423        C424   1.395       .  A
C423        C428   1.387       .  A
C423        H430   1.082       .  S
C424        C425   1.408       .  A
C425        C426   1.387       .  A
C425        N432   1.431       .  S
C426        C427   1.395       .  A
C426        H431   1.084       .  S
C427        C428   1.401       .  A
C428        N429   1.429       .  S
N429        O433   1.260       .  A
N429        O434   1.262       .  A
N432        O436   1.262       .  A
N432        O435   1.262       .  A
C437        C438   1.395   1_545  A
C437        C442   1.381       .  A
C437        H444   1.084       .  S
C438       C1367   1.409       .  A
C438        C998   1.492       .  S
C439        C440   1.417       .  A
C439       C1366   1.410       .  A
C439        N446   1.421       .  S
C440       C1369   1.420       .  A
C440        H445   1.083       .  S
C441        C442   1.418       .  A
C441       C1368   1.419   1_545  A
C442        N443   1.444       .  S
N443        O447   1.262       .  A
N443        O448   1.264       .  A
N446        O450   1.261       .  A
N446        O449   1.261       .  A
C451        C452   1.409       .  A
C451        C456   1.401       .  A
C451        H458   1.084       .  S
C452        C453   1.409   1_545  A
C452        N478   1.440   1_554  S
C453       C1382   1.407       .  A
C453       N1388   1.427       .  S
C454       C1381   1.407       .  A
C454       C1383   1.406       .  A
C454        H459   1.084       .  S
C455        C456   1.405       .  A
C455       C1382   1.407   1_545  A
C456        N457   1.429       .  S
N457        O461   1.262       .  A
N457        O462   1.262       .  A
N460       C1381   1.427       .  S
N460        O464   1.262       .  A
N460        O927   1.262       .  A
O463        N924   1.262       .  A
C465        C467   1.564       .  S
C465        C469   1.545       .  S
C465        C468   1.518       .  S
C465        C888   1.516       .  S
C466        C470   1.574       .  S
C466        C472   1.567       .  S
C466        C471   1.549       .  S
C466        C905   1.517       .  S
C467        C475   1.408       .  A
C467        C470   1.383       .  A
C468        C479   1.358       .  A
C468        C471   1.384       .  A
C469        C483   1.396       .  A
C469        C472   1.383       .  A
C470        C473   1.398       .  A
C471        C477   1.403       .  A
C472       C1408   1.397       .  A
C473        N474   1.353       .  A
C473        H486   1.078       .  S
N474        C475   1.367       .  A
N474        C597   1.463       .  S
C475        H476   1.078       .  S
C477        N478   1.371       .  A
C477       H1415   1.082   1_545  S
N478        C479   1.345       .  A
C479        H485   1.084       .  S
C480       C1400   1.397       .  A
C480        N481   1.364       .  A
C480        H482   1.082       .  S
N481       C1411   1.359       .  A
N481        C556   1.458       .  S
C483       N1409   1.358       .  A
C483        H484   1.077       .  S
H487       C1405   1.082       .  S
O488        C503   1.236       .  A
O488       Al496   1.783       .  S
C489        O499   1.264       .  A
C489        O490   1.276       .  A
C489        C860   1.466       .  S
O490       Al492   1.958       .  S
O491        C493   1.251       .  A
O491       Al492   1.864       .  S
Al492       O500   1.854       .  S
Al492       O502   1.943       .  S
Al492       O501   1.732       .  S
C493        O506   1.258       .  A
C493        C593   1.478       .  S
O494        C504   1.241       .  A
O494       Al496   1.784       .  S
O495        C508   1.274       .  A
O495       Al505   1.929       .  S
Al496       O509   1.936       .  S
Al496       O506   1.957       .  S
Al496       O501   1.769       .  S
O497        C504   1.287       .  A
O497       Al505   2.045       .  S
O498        C507   1.279       .  A
O498       Al505   2.035       .  S
O499       Al505   1.842       .  S
O500        C507   1.244       .  A
O501       Al505   1.784       .  S
O502        C503   1.279       .  A
C503        C891   1.429       .  S
C504        C574   1.448       .  S
C507        C560   1.505       .  S
C508        O509   1.270       .  A
C508        C874   1.483       .  S
C510        C512   1.547       .  S
C510        C514   1.570       .  S
C510        C513   1.517       .  S
C510        C846   1.513       .  S
C511        C515   1.588       .  S
C511        C517   1.560       .  S
C511        C516   1.530       .  S
C511        C863   1.505       .  S
C512        C520   1.389       .  A
C512        C515   1.389       .  A
C513        C524   1.355       .  A
C513        C516   1.372       .  A
C514        C528   1.410       .  A
C514        C517   1.391       .  A
C515        C518   1.414       .  A
C516        C522   1.399       .  A
C517        C525   1.401       .  A
C518        N519   1.374       .  A
C518        H531   1.082       .  S
N519        C520   1.354       .  A
N519        C575   1.462       .  S
C520        H521   1.070       .  S
C522        N523   1.362       .  A
C522        H532   1.082       .  S
N523        C524   1.353       .  A
N523        C877   1.442       .  S
C524        H530   1.084       .  S
C525        N526   1.356       .  A
C525        H527   1.079       .  S
N526        C528   1.361       .  A
N526        C578   1.464       .  S
C528        H529   1.078       .  S
O533        C548   1.236       .  A
O533      Al1469   1.776       .  S
C534       O1472   1.263       .  A
C534        O535   1.275       .  A
C534       C1830   1.492       .  S
O535       Al537   1.993       .  S
O536       C1466   1.251       .  A
O536       Al537   1.859       .  S
Al537       O545   1.853       .  S
Al537       O547   1.965       .  S
Al537       O546   1.740       .  S
C538       O1464   1.251   1_545  A
C538        O551   1.270       .  A
C538        C571   1.481       .  S
O539        C549   1.239       .  A
O539       Al541   1.780       .  S
O540       C1481   1.264       .  A
O540      Al1478   1.901       .  S
Al541      O1461   1.776       .  S
Al541       O554   1.976       .  S
Al541       O551   1.995       .  S
Al541      O1474   1.779   1_545  S
O542        C549   1.289       .  A
O542       Al550   2.041       .  S
O543        C552   1.280       .  A
O543      Al1478   2.023       .  S
O544       C1462   1.263   1_545  A
O544       Al550   1.829       .  S
O545        C552   1.247       .  A
O546      Al1469   1.778       .  S
O546      Al1478   1.759       .  S
O547        C548   1.283       .  A
C548        C849   1.419       .  S
C549        C596   1.451       .  S
Al550      O1468   1.893   1_545  S
Al550      O1471   2.019   1_545  S
Al550      O1474   1.761   1_545  S
C552        C582   1.491       .  S
C553       O1468   1.263   1_545  A
C553        O554   1.278       .  A
C553        C919   1.482       .  S
O555        C570   1.264       .  A
O555      Al1491   1.898       .  S
C556        O566   1.260       .  A
C556        O557   1.264       .  A
O557       Al559   1.947       .  S
O558        C560   1.261       .  A
O558      Al1487   1.926   1_545  S
Al559      O1486   1.921       .  S
Al559       O567   1.956       .  S
Al559       O569   1.885       .  S
Al559       O568   1.791       .  S
C560        O573   1.288       .  A
O561        C571   1.272       .  A
O561       Al563   2.003       .  S
O562        C575   1.259       .  A
O562       Al572   1.926       .  S
Al563      O1483   1.898       .  S
Al563      O1504   1.993   1_545  S
Al563       O573   1.981       .  S
Al563      O1496   1.761   1_545  S
O564       C1499   1.254       .  A
O564       Al572   1.869       .  S
O565        C574   1.251       .  A
O565       Al572   1.834       .  S
O566       Al572   1.921       .  S
O567        C574   1.271       .  A
O568      Al1491   1.761       .  S
O568       Al572   1.762       .  S
O569        C570   1.259       .  A
C570        C832   1.471       .  S
C571       O1492   1.253       .  A
C575        O576   1.279       .  A
O576      Al1491   1.999       .  S
O577        C592   1.272       .  A
O577       Al585   1.932       .  S
C578        O588   1.269       .  A
C578        O579   1.265       .  A
O579       Al581   1.946       .  S
O580        C582   1.257       .  A
O580       Al581   1.920       .  S
Al581       O589   1.947       .  S
Al581       O591   1.870       .  S
Al581       O590   1.794       .  S
C582        O595   1.279       .  A
O583        C593   1.274       .  A
O583       Al585   2.002       .  S
O584        C597   1.266       .  A
O584       Al594   1.961       .  S
Al585       O598   1.969       .  S
Al585       O595   1.955       .  S
Al585       O590   1.772       .  S
O586        C593   1.250       .  A
O586       Al594   1.858       .  S
O587        C596   1.257       .  A
O587       Al594   1.868       .  S
O588       Al594   1.952       .  S
O589        C596   1.269       .  A
O590       Al594   1.755       .  S
O591        C592   1.260       .  A
C592        C818   1.475       .  S
C597        O598   1.273       .  A
C599        C601   1.571       .  S
C599        C603   1.564       .  S
C599        C602   1.545       .  S
C599        C776   1.521       .  S
C600        C604   1.549       .  S
C600        C606   1.552       .  S
C600        C605   1.552       .  S
C600        C793   1.502   1_545  S
C601        C609   1.413       .  A
C601        C604   1.369       .  A
C602        C613   1.363       .  A
C602        C605   1.404       .  A
C603        C617   1.411       .  A
C603        C606   1.367       .  A
C604        C607   1.393       .  A
C605        C611   1.400   1_545  A
C606       C1542   1.391   1_545  A
C607        N608   1.357       .  A
C607        H620   1.082       .  S
N608        C609   1.366       .  A
N608        C709   1.461       .  S
C609        H610   1.073       .  S
C611        N612   1.372   1_565  A
C611       H1549   1.082       .  S
N612        C613   1.353       .  A
N612        C804   1.447       .  S
C613        H619   1.083       .  S
C614       C1534   1.390       .  A
C614        N615   1.348       .  A
C614        H616   1.082       .  S
N615       C1545   1.369       .  A
N615        C712   1.458       .  S
C617       N1543   1.368   1_545  A
C617        H618   1.078       .  S
H621       C1539   1.082       .  S
O622        C637   1.239       .  A
O622       Al630   1.777       .  S
C623        O633   1.251       .  A
C623        O624   1.269       .  A
C623        C751   1.458       .  S
O624       Al626   1.930       .  S
O625        C627   1.245       .  A
O625       Al626   1.891       .  S
Al626       O634   1.864       .  S
Al626       O636   1.988       .  S
Al626       O635   1.734       .  S
C627        O640   1.271       .  A
C627        C705   1.477       .  S
O628        C638   1.248       .  A
O628       Al630   1.771       .  S
O629        C642   1.265       .  A
O629       Al639   1.898       .  S
Al630       O643   1.945       .  S
Al630       O640   2.020       .  S
Al630       O635   1.795       .  S
O631        C638   1.291       .  A
O631       Al639   2.035       .  S
O632        C641   1.289       .  A
O632       Al639   2.044       .  S
O633       Al639   1.838       .  S
O634        C641   1.254       .  A
O635       Al639   1.756       .  S
O636        C637   1.288       .  A
C637        C779   1.428       .  S
C638        C730   1.446       .  S
C641        C716   1.513       .  S
C642        O643   1.271       .  A
C642        C765   1.470       .  S
C644        C646   1.561       .  S
C644        C648   1.553       .  S
C644        C647   1.510       .  S
C644        C734   1.499       .  S
C645        C649   1.573       .  S
C645        C651   1.569       .  S
C645        C650   1.528       .  S
C645        C748   1.515       .  S
C646        C654   1.398       .  A
C646        C649   1.387       .  A
C647        C658   1.363       .  A
C647        C650   1.373       .  A
C648        C662   1.400       .  A
C648        C651   1.389       .  A
C649        C652   1.404       .  A
C650        C656   1.388       .  A
C651        C659   1.396       .  A
C652        N653   1.367       .  A
C652        H665   1.078       .  S
N653        C654   1.365       .  A
N653        C731   1.460       .  S
C654        H655   1.082       .  S
C656        N657   1.359       .  A
C656        H666   1.082       .  S
N657        C658   1.349       .  A
C658        H664   1.083       .  S
C659        N660   1.362       .  A
C659        H661   1.079       .  S
N660        C662   1.361       .  A
N660        C690   1.456       .  S
C662        H663   1.081       .  S
O667        C682   1.242       .  A
O667      Al1603   1.828       .  S
C668       O1606   1.275       .  A
C668        O669   1.273       .  A
C668       C1718   1.430       .  S
O669       Al671   1.933       .  S
O670       C1600   1.253       .  A
O670       Al671   1.882       .  S
Al671       O679   1.874       .  S
Al671       O681   1.928       .  S
Al671       O680   1.744       .  S
C672       O1598   1.254       .  A
C672        O685   1.262   1_565  A
C672        C727   1.490       .  S
O673        C683   1.235       .  A
O673       Al675   1.809       .  S
O674       C1615   1.272       .  A
O674       Al684   1.923       .  S
Al675      O1595   1.828   1_545  S
Al675       O688   1.966       .  S
Al675       O685   1.953       .  S
Al675      O1608   1.771   1_545  S
O676        C683   1.288       .  A
O676      Al1612   2.081   1_545  S
O677        C686   1.274       .  A
O677       Al684   2.017       .  S
O678       C1596   1.276       .  A
O678      Al1612   1.870       .  S
O679        C686   1.252       .  A
O680      Al1603   1.773       .  S
O680       Al684   1.794       .  S
O681        C682   1.275       .  A
C682        C737   1.448       .  S
C683        C708   1.489       .  S
Al684      O1604   2.079       .  S
Al684      O1606   1.866       .  S
C686        C694   1.511       .  S
C687       O1602   1.272       .  A
C687        O688   1.278   1_565  A
C687        C807   1.490       .  S
O689        C704   1.263       .  A
O689       Al697   1.887       .  S
C690        O700   1.266       .  A
C690        O691   1.286       .  A
O691       Al693   1.995       .  S
O692        C694   1.253       .  A
O692       Al693   1.876       .  S
Al693       O701   1.969       .  S
Al693       O703   1.900       .  S
Al693       O702   1.789       .  S
C694        O707   1.286       .  A
O695        C705   1.270       .  A
O695       Al697   1.974       .  S
O696        C709   1.263       .  A
O696       Al706   1.888       .  S
Al697       O710   2.049       .  S
Al697       O707   2.019       .  S
Al697       O702   1.778       .  S
O698        C705   1.251       .  A
O698       Al706   1.873       .  S
O699        C708   1.258       .  A
O699       Al706   1.876       .  S
O700       Al706   1.895       .  S
O701        C708   1.254       .  A
O702       Al706   1.767       .  S
O703        C704   1.263       .  A
C704        C821   1.478       .  S
C709        O710   1.292       .  A
O711        C726   1.267       .  A
O711      Al1647   1.923       .  S
C712        O722   1.276       .  A
C712        O713   1.260       .  A
O713       Al715   1.914       .  S
O714        C716   1.260       .  A
O714      Al1643   1.939   1_545  S
Al715      O1642   1.935       .  S
Al715       O723   1.954       .  S
Al715       O725   1.865       .  S
Al715       O724   1.811       .  S
C716        O729   1.288       .  A
O717        C727   1.269   1_545  A
O717       Al719   1.972       .  S
O718        C731   1.257       .  A
O718       Al728   1.912       .  S
Al719      O1639   1.924       .  S
Al719      O1660   1.999   1_545  S
Al719       O729   1.990       .  S
Al719      O1652   1.769   1_545  S
O720       C1655   1.262       .  A
O720       Al728   1.878       .  S
O721        C730   1.246       .  A
O721       Al728   1.865       .  S
O722       Al728   1.969       .  S
O723        C730   1.265       .  A
O724      Al1647   1.772       .  S
O724       Al728   1.758       .  S
O725        C726   1.258       .  A
C726        C835   1.460       .  S
C727       O1648   1.261       .  A
C731        O732   1.282       .  A
O732      Al1647   1.997       .  S
C733        C734   1.403       .  A
C733        C738   1.388       .  A
C733        H740   1.084       .  S
C734        C735   1.410       .  A
C735        C736   1.395       .  A
C735        N742   1.440       .  S
C736        C737   1.399       .  A
C736        H741   1.083       .  S
C737        C738   1.400       .  A
C738        N739   1.429       .  S
N739        O743   1.261       .  A
N739        O744   1.262       .  A
N742        O746   1.263       .  A
N742        O745   1.263       .  A
C747        C748   1.397       .  A
C747        C752   1.391       .  A
C747        H754   1.083       .  S
C748        C749   1.410       .  A
C749        C750   1.395       .  A
C749        N756   1.439       .  S
C750        C751   1.399       .  A
C750        H755   1.084       .  S
C751        C752   1.414       .  A
C752        N753   1.432       .  S
N753        O757   1.262       .  A
N753        O758   1.262       .  A
N756        O760   1.262       .  A
N756        O759   1.263       .  A
C761        C762   1.402       .  A
C761        C766   1.395       .  A
C761        H768   1.084       .  S
C762        C763   1.406       .  A
C763        C764   1.402       .  A
C763        N770   1.428       .  S
C764        C765   1.404       .  A
C764        H769   1.084       .  S
C765        C766   1.408       .  A
C766        N767   1.430       .  S
N767        O771   1.262       .  A
N767        O772   1.262       .  A
N770        O774   1.262       .  A
C775        C776   1.402       .  A
C775        C780   1.397       .  A
C775        H782   1.083       .  S
C776        C777   1.404       .  A
C777        C778   1.391       .  A
C777        N784   1.434       .  S
C778        C779   1.396       .  A
C778        H783   1.084       .  S
C779        C780   1.410       .  A
C780        N781   1.430       .  S
N781        O785   1.262       .  A
N781        O786   1.262       .  A
N784        O788   1.261       .  A
N784        O787   1.263       .  A
C789        C790   1.371       .  A
C789        C794   1.351       .  A
C789        H796   1.083       .  S
C790       C1719   1.414       .  A
C790       C1596   1.434       .  S
C791       C1718   1.413       .  A
C791        C792   1.412       .  A
C791        N798   1.426       .  S
C792       C1721   1.403       .  A
C792        H797   1.082       .  S
C793       C1720   1.404       .  A
C793        C794   1.436       .  A
C794        N795   1.440   1_565  S
N795        O799   1.261       .  A
N795        O800   1.260       .  A
N798        O802   1.262       .  A
N798        O801   1.261       .  A
C803        C808   1.404       .  A
C803        H810   1.084       .  S
C804       C1269   1.411   1_545  A
C805       C1268   1.412   1_556  A
C805        C806   1.414       .  A
C806       C1735   1.410       .  A
C806        H811   1.084       .  S
C807       C1734   1.408       .  A
C807        C808   1.407   1_565  A
C808        N809   1.429       .  S
N809        O813   1.262       .  A
N809        O814   1.262       .  A
N812        O816   1.262       .  A
N812        O815   1.262       .  A
C817        C818   1.401       .  A
C817        C822   1.397       .  A
C817        H824   1.084       .  S
C818        C819   1.413       .  A
C819        C820   1.396       .  A
C819        N826   1.430       .  S
C820        C821   1.403   1_655  A
C820        H825   1.084   1_655  S
C821        C822   1.414   1_455  A
C822        N823   1.429       .  S
N823        O827   1.262   1_655  A
N823        O828   1.262       .  A
N826        O830   1.262       .  A
N826        O829   1.262       .  A
C831        C832   1.403       .  A
C831        C836   1.391       .  A
C831        H838   1.084       .  S
C832        C833   1.413       .  A
C833        C834   1.398       .  A
C833       N1768   1.428       .  S
C834        C835   1.399       .  A
C834       H1767   1.084       .  S
C835        C836   1.407       .  A
C836        N837   1.430       .  S
N837        O841   1.262       .  A
N837        O842   1.262       .  A
H839       C1762   1.084       .  S
N840       C1761   1.429       .  S
N840       O1772   1.262       .  A
N840        O843   1.262   1_565  A
O844       N1768   1.262       .  A
C845        C846   1.402       .  A
C845        C850   1.391       .  A
C845        H852   1.083       .  S
C846        C847   1.405       .  A
C847        C848   1.386       .  A
C847        N854   1.436       .  S
C848        C849   1.392       .  A
C848        H853   1.084       .  S
C849        C850   1.404       .  A
C850        N851   1.431       .  S
N851        O855   1.262       .  A
N851        O856   1.262       .  A
N854        O858   1.263       .  A
N854        O857   1.260       .  A
C859        C860   1.414       .  A
C859        C864   1.390       .  A
C859        H866   1.083       .  S
C860        C861   1.414       .  A
C861        C862   1.391       .  A
C861        N868   1.428       .  S
C862        C863   1.393       .  A
C862        H867   1.084       .  S
C863        C864   1.393       .  A
C864        N865   1.430       .  S
N865        O869   1.261       .  A
N865        O870   1.262       .  A
N868        O872   1.262       .  A
N868        O871   1.262       .  A
C873        C874   1.411       .  A
C873        C878   1.417       .  A
C873        H880   1.083       .  S
C874        C875   1.413       .  A
C875        C876   1.383       .  A
C875        N882   1.437       .  S
N879        O883   1.262       .  A
N879        O884   1.262       .  A
N882        O886   1.262       .  A
N882        O885   1.264       .  A
C887        C888   1.394       .  A
C887        C892   1.393       .  A
C887        H894   1.082       .  S
C888        C889   1.406       .  A
C889        C890   1.385       .  A
C889        N896   1.430       .  S
C890        C891   1.396       .  A
C890        H895   1.084       .  S
C891        C892   1.408       .  A
C892        N893   1.440       .  S
N893        O897   1.263       .  A
N893        O898   1.261       .  A
N896        O900   1.262       .  A
N896        O899   1.262       .  A
C901        C902   1.395   1_545  A
C901        C906   1.380       .  A
C901        H908   1.084       .  S
C902       C1831   1.409       .  A
C902       C1462   1.492       .  S
C903       C1830   1.409       .  A
C903        C904   1.416       .  A
C903        N910   1.421       .  S
C904       C1833   1.420       .  A
C904        H909   1.083       .  S
C905       C1832   1.420   1_545  A
C905        C906   1.419       .  A
C906        N907   1.443       .  S
N907        O911   1.262       .  A
N907        O912   1.263       .  A
N910        O914   1.261       .  A
N910        O913   1.261       .  A
C915        C916   1.409       .  A
C915        C920   1.402       .  A
C915        H922   1.084       .  S
C916        C917   1.408   1_545  A
C917       C1846   1.406       .  A
C917       N1852   1.427       .  S
C918       C1845   1.409       .  A
C918       C1847   1.408       .  A
C918        H923   1.084       .  S
C919       C1846   1.406   1_545  A
C919        C920   1.406       .  A
C920        N921   1.429       .  S
N921        O925   1.262       .  A
N921        O926   1.262       .  A
N924       C1845   1.427       .  S
N924        O928   1.262       .  A
C929        C931   1.564       .  S
C929        C933   1.544       .  S
C929        C932   1.516       .  S
C929       C1352   1.514       .  S
C930        C934   1.573       .  S
C930        C936   1.569       .  S
C930        C935   1.552       .  S
C930       C1369   1.518       .  S
C931        C939   1.407       .  A
C931        C934   1.380       .  A
C932        C943   1.357       .  A
C932        C935   1.384       .  A
C933        C947   1.394       .  A
C933        C936   1.384       .  A
C934        C937   1.399       .  A
C935        C941   1.405       .  A
C937        N938   1.352       .  A
C937        H950   1.078       .  S
N938        C939   1.365       .  A
N938       C1061   1.461       .  S
C939        H940   1.076       .  S
C941        N942   1.373       .  A
N942        C943   1.345       .  A
N942       C1844   1.443       .  S
C943        H949   1.084       .  S
C944        N945   1.365       .  A
C944        H946   1.082   1_545  S
N945       C1020   1.458   1_545  S
C947        H948   1.080       .  S
O952        C967   1.234       .  A
O952       Al960   1.774       .  S
C953        O963   1.265       .  A
C953        O954   1.278       .  A
C953       C1324   1.465       .  S
O954       Al956   1.960       .  S
O955        C957   1.250       .  A
O955       Al956   1.858       .  S
Al956       O964   1.848       .  S
Al956       O966   1.942       .  S
Al956       O965   1.732       .  S
C957        O970   1.257       .  A
C957       C1057   1.474       .  S
O958        C968   1.240       .  A
O958       Al960   1.785       .  S
O959        C972   1.273       .  A
O959       Al969   1.918       .  S
Al960       O973   1.940       .  S
Al960       O970   1.951       .  S
Al960       O965   1.770       .  S
O961        C968   1.285       .  A
O961       Al969   2.044       .  S
O962        C971   1.275       .  A
O962       Al969   2.024       .  S
O963       Al969   1.834       .  S
O964        C971   1.243       .  A
O965       Al969   1.785       .  S
O966        C967   1.280       .  A
C967       C1355   1.426       .  S
C968       C1038   1.449       .  S
C971       C1024   1.498       .  S
C972        O973   1.272       .  A
C972       C1338   1.480       .  S
C974        C976   1.550       .  S
C974        C978   1.573       .  S
C974        C977   1.513       .  S
C974       C1310   1.515       .  S
C975        C979   1.585       .  S
C975        C981   1.563       .  S
C975        C980   1.533       .  S
C975       C1327   1.507       .  S
C976        C984   1.390       .  A
C976        C979   1.389       .  A
C977        C988   1.355       .  A
C977        C980   1.368       .  A
C978        C992   1.410       .  A
C978        C981   1.387       .  A
C979        C982   1.411       .  A
C980        C986   1.400       .  A
C981        C989   1.400       .  A
C982        N983   1.371       .  A
C982        H995   1.081       .  S
N983        C984   1.353       .  A
N983       C1039   1.460       .  S
C984        H985   1.075       .  S
C986        N987   1.365       .  A
C986        H996   1.082       .  S
N987        C988   1.354       .  A
N987       C1341   1.444       .  S
C988        H994   1.084       .  S
C989        N990   1.360       .  A
C989        H991   1.079       .  S
N990        C992   1.365       .  A
N990       C1042   1.468       .  S
C992        H993   1.078       .  S
O997       C1012   1.235   1_545  A
C998        O999   1.276       .  A
O999      Al1001   1.996       .  S
O1000     Al1001   1.863       .  S
Al1001     O1009   1.854       .  S
Al1001     O1011   1.965       .  S
Al1001     O1010   1.739       .  S
C1002      O1015   1.270       .  A
C1002      C1035   1.480       .  S
O1003      C1013   1.239       .  A
O1003     Al1005   1.774       .  S
Al1005     O1018   1.976       .  S
Al1005     O1015   1.996       .  S
O1006      C1013   1.291       .  A
O1006     Al1014   2.051       .  S
O1007      C1016   1.278       .  A
O1008     Al1014   1.833       .  S
O1009      C1016   1.247       .  A
O1011      C1012   1.283       .  A
C1012      C1313   1.420       .  S
C1013      C1060   1.454       .  S
C1016      C1046   1.484       .  S
C1017      O1018   1.277       .  A
C1017      C1383   1.482       .  S
O1019      C1034   1.264       .  A
C1020      O1030   1.261       .  A
C1020      O1021   1.263   1_565  A
O1021     Al1023   1.940   1_545  S
O1022      C1024   1.261       .  A
Al1023     O1031   1.961       .  S
Al1023     O1033   1.883       .  S
Al1023     O1032   1.793       .  S
C1024      O1037   1.286       .  A
O1025      C1035   1.273       .  A
O1025     Al1027   2.002       .  S
O1026      C1039   1.259       .  A
O1026     Al1036   1.927       .  S
Al1027     O1037   1.972       .  S
O1028     Al1036   1.868   1_545  S
O1029      C1038   1.251       .  A
O1029     Al1036   1.837       .  S
O1030     Al1036   1.927       .  S
O1031      C1038   1.272       .  A
O1032     Al1036   1.762       .  S
O1033      C1034   1.260   1_565  A
C1034      C1296   1.465   1_545  S
C1039      O1040   1.277       .  A
O1041      C1056   1.270       .  A
O1041     Al1049   1.925       .  S
C1042      O1052   1.269       .  A
C1042      O1043   1.266       .  A
O1043     Al1045   1.954       .  S
O1044      C1046   1.257       .  A
O1044     Al1045   1.918       .  S
Al1045     O1053   1.952       .  S
Al1045     O1055   1.872       .  S
Al1045     O1054   1.793       .  S
C1046      O1059   1.277       .  A
O1047      C1057   1.273       .  A
O1047     Al1049   1.995       .  S
O1048      C1061   1.266       .  A
O1048     Al1058   1.960       .  S
Al1049     O1062   1.964       .  S
Al1049     O1059   1.944       .  S
Al1049     O1054   1.770       .  S
O1050      C1057   1.251       .  A
O1050     Al1058   1.860       .  S
O1051      C1060   1.258       .  A
O1051     Al1058   1.868       .  S
O1052     Al1058   1.953       .  S
O1053      C1060   1.270       .  A
O1054     Al1058   1.754       .  S
O1055      C1056   1.260       .  A
C1056      C1282   1.472       .  S
C1061      O1062   1.271       .  A
C1063      C1065   1.564       .  S
C1063      C1067   1.566       .  S
C1063      C1066   1.543       .  S
C1063      C1240   1.520       .  S
C1064      C1068   1.550       .  S
C1064      C1070   1.555       .  S
C1064      C1069   1.554       .  S
C1064      C1257   1.502       .  S
C1065      C1073   1.408       .  A
C1065      C1068   1.368       .  A
C1066      C1077   1.361       .  A
C1066      C1069   1.403       .  A
C1067      C1081   1.413       .  A
C1067      C1070   1.368       .  A
C1068      C1071   1.394       .  A
C1069      C1075   1.403       .  A
C1071      N1072   1.358       .  A
C1071      H1084   1.081       .  S
N1072      C1073   1.361       .  A
N1072      C1173   1.458       .  S
C1073      H1074   1.080       .  S
C1075      N1076   1.374       .  A
N1076      C1077   1.353       .  A
N1076      C1268   1.449       .  S
C1077      H1083   1.083       .  S
C1078      N1079   1.349       .  A
C1078      H1080   1.082       .  S
N1079      C1176   1.461       .  S
C1081      H1082   1.078       .  S
O1086      C1101   1.239       .  A
O1086     Al1094   1.780       .  S
C1087      O1097   1.250       .  A
C1087      O1088   1.270       .  A
C1087      C1215   1.455       .  S
O1088     Al1090   1.932       .  S
O1089      C1091   1.245       .  A
O1089     Al1090   1.890       .  S
Al1090     O1098   1.861       .  S
Al1090     O1100   1.993       .  S
Al1090     O1099   1.734       .  S
C1091      O1104   1.271       .  A
C1091      C1169   1.475       .  S
O1092      C1102   1.249       .  A
O1092     Al1094   1.775       .  S
O1093      C1106   1.264       .  A
O1093     Al1103   1.897       .  S
Al1094     O1107   1.941       .  S
Al1094     O1104   2.019       .  S
Al1094     O1099   1.792       .  S
O1095      C1102   1.292       .  A
O1095     Al1103   2.036       .  S
O1096      C1105   1.289       .  A
O1096     Al1103   2.046       .  S
O1097     Al1103   1.831       .  S
O1098      C1105   1.254       .  A
O1099     Al1103   1.754       .  S
O1100      C1101   1.289       .  A
C1101      C1243   1.430       .  S
C1102      C1194   1.447       .  S
C1105      C1180   1.512       .  S
C1106      O1107   1.271       .  A
C1106      C1229   1.465       .  S
C1108      C1110   1.566       .  S
C1108      C1112   1.553       .  S
C1108      C1111   1.508       .  S
C1108      C1198   1.500       .  S
C1109      C1113   1.573       .  S
C1109      C1115   1.569       .  S
C1109      C1114   1.525       .  S
C1109      C1212   1.514       .  S
C1110      C1118   1.402       .  A
C1110      C1113   1.389       .  A
C1111      C1122   1.363       .  A
C1111      C1114   1.372       .  A
C1112      C1126   1.399       .  A
C1112      C1115   1.391       .  A
C1113      C1116   1.405       .  A
C1114      C1120   1.387       .  A
C1115      C1123   1.395       .  A
C1116      N1117   1.366       .  A
C1116      H1129   1.076       .  S
N1117      C1118   1.366       .  A
N1117      C1195   1.464       .  S
C1118      H1119   1.082       .  S
C1120      N1121   1.358       .  A
C1120      H1130   1.082       .  S
N1121      C1122   1.348       .  A
N1121      C1690   1.426       .  S
C1122      H1128   1.083       .  S
C1123      N1124   1.363       .  A
C1123      H1125   1.079       .  S
N1124      C1126   1.361       .  A
N1124      C1154   1.457       .  S
C1126      H1127   1.081       .  S
O1131      C1146   1.242       .  A
C1132      O1133   1.273       .  A
O1133     Al1135   1.940       .  S
O1134     Al1135   1.882       .  S
Al1135     O1143   1.873       .  S
Al1135     O1145   1.929       .  S
Al1135     O1144   1.741       .  S
C1136      O1149   1.264       .  A
C1136      C1191   1.492       .  S
O1137      C1147   1.237       .  A
O1137     Al1139   1.807       .  S
O1138     Al1148   1.930       .  S
Al1139     O1152   1.959       .  S
Al1139     O1149   1.960       .  S
O1140      C1147   1.288       .  A
O1141      C1150   1.276       .  A
O1141     Al1148   2.021       .  S
O1143      C1150   1.251       .  A
O1144     Al1148   1.789       .  S
O1145      C1146   1.276       .  A
C1146      C1201   1.442       .  S
C1147      C1172   1.488       .  S
C1150      C1158   1.509       .  S
C1151      O1152   1.276       .  A
C1151      C1271   1.485       .  S
O1153      C1168   1.262       .  A
O1153     Al1161   1.877       .  S
C1154      O1164   1.266       .  A
C1154      O1155   1.287       .  A
O1155     Al1157   1.998       .  S
O1156      C1158   1.255       .  A
O1156     Al1157   1.881       .  S
Al1157     O1165   1.971       .  S
Al1157     O1167   1.907       .  S
Al1157     O1166   1.788       .  S
C1158      O1171   1.284       .  A
O1159      C1169   1.269       .  A
O1159     Al1161   1.970       .  S
O1160      C1173   1.263       .  A
O1160     Al1170   1.891       .  S
Al1161     O1174   2.039       .  S
Al1161     O1171   2.011       .  S
Al1161     O1166   1.776       .  S
O1162      C1169   1.251       .  A
O1162     Al1170   1.876       .  S
O1163      C1172   1.257       .  A
O1163     Al1170   1.874       .  S
O1164     Al1170   1.896       .  S
O1165      C1172   1.254       .  A
O1166     Al1170   1.769       .  S
O1167      C1168   1.264       .  A
C1168      C1285   1.479       .  S
C1173      O1174   1.291       .  A
O1175      C1190   1.268   1_545  A
C1176      O1186   1.276       .  A
C1176      O1177   1.261   1_565  A
O1177     Al1179   1.923   1_545  S
O1178      C1180   1.259       .  A
Al1179     O1187   1.954       .  S
Al1179     O1189   1.873       .  S
Al1179     O1188   1.809       .  S
C1180      O1193   1.288       .  A
O1181      C1191   1.270       .  A
O1181     Al1183   1.976       .  S
O1182      C1195   1.260       .  A
O1182     Al1192   1.928       .  S
Al1183     O1193   1.992       .  S
O1184     Al1192   1.874       .  S
O1185      C1194   1.247       .  A
O1185     Al1192   1.859       .  S
O1186     Al1192   1.969       .  S
O1187      C1194   1.265       .  A
O1188     Al1192   1.759       .  S
O1189      C1190   1.259       .  A
C1190      C1299   1.472       .  S
C1195      O1196   1.283       .  A
C1197      C1198   1.401       .  A
C1197      C1202   1.387       .  A
C1197      H1204   1.084       .  S
C1198      C1199   1.407       .  A
C1199      C1200   1.393       .  A
C1199      N1206   1.440       .  S
C1200      C1201   1.399       .  A
C1200      H1205   1.083       .  S
C1201      C1202   1.401       .  A
C1202      N1203   1.428       .  S
N1203      O1207   1.260       .  A
N1203      O1208   1.262       .  A
N1206      O1210   1.263       .  A
N1206      O1209   1.263       .  A
C1211      C1212   1.397       .  A
C1211      C1216   1.391       .  A
C1211      H1218   1.083       .  S
C1212      C1213   1.406       .  A
C1213      C1214   1.391       .  A
C1213      N1220   1.432       .  S
C1214      C1215   1.399       .  A
C1214      H1219   1.084       .  S
C1215      C1216   1.416       .  A
C1216      N1217   1.432       .  S
N1217      O1221   1.262       .  A
N1217      O1222   1.262       .  A
N1220      O1224   1.262       .  A
N1220      O1223   1.262       .  A
C1225      C1226   1.400       .  A
C1225      C1230   1.393       .  A
C1225      H1232   1.084       .  S
C1226      C1227   1.407       .  A
C1226      N1585   1.427   1_554  S
C1227      C1228   1.401       .  A
C1227      N1234   1.428       .  S
C1228      C1229   1.404       .  A
C1228      H1233   1.084       .  S
C1229      C1230   1.407       .  A
C1230      N1231   1.429       .  S
N1231      O1235   1.262       .  A
N1231      O1236   1.262       .  A
N1234      O1238   1.262       .  A
N1234      O1701   1.262       .  A
O1237      N1698   1.261       .  A
C1239      C1240   1.402       .  A
C1239      C1244   1.396       .  A
C1239      H1246   1.083       .  S
C1240      C1241   1.402       .  A
C1241      C1242   1.394       .  A
C1241      N1248   1.436       .  S
C1242      C1243   1.397       .  A
C1242      H1247   1.084       .  S
C1243      C1244   1.408       .  A
C1244      N1245   1.431       .  S
N1245      O1249   1.262       .  A
N1245      O1250   1.262       .  A
N1248      O1252   1.262       .  A
N1248      O1251   1.263       .  A
C1253      C1254   1.372       .  A
C1253      C1258   1.351       .  A
C1253      H1260   1.084       .  S
C1255      C1256   1.415       .  A
C1255      N1262   1.427       .  S
C1256      H1261   1.083       .  S
C1257      C1258   1.434       .  A
C1258      N1259   1.440       .  S
N1259      O1263   1.261       .  A
N1259      O1264   1.260       .  A
N1262      O1266   1.262       .  A
N1262      O1265   1.261       .  A
C1267      C1732   1.407       .  A
C1267      C1272   1.400       .  A
C1267      H1274   1.084       .  S
C1268      C1731   1.407   1_554  A
C1269      C1270   1.413       .  A
C1269      N1740   1.428       .  S
C1270      H1275   1.084       .  S
C1271      C1272   1.407       .  A
C1272      N1273   1.429       .  S
N1273      O1277   1.262       .  A
N1273      O1278   1.262       .  A
N1276      C1733   1.427   1_554  S
N1276      O1280   1.262       .  A
N1276      O1279   1.262       .  A
C1281      C1282   1.402       .  A
C1281      C1286   1.398       .  A
C1281      H1288   1.084       .  S
C1282      C1283   1.410       .  A
C1283      C1284   1.394       .  A
C1283      N1290   1.429       .  S
C1284      C1285   1.405   1_655  A
C1284      H1289   1.084   1_655  S
C1285      C1286   1.414   1_455  A
C1286      N1287   1.429       .  S
N1287      O1291   1.262   1_655  A
N1287      O1292   1.262       .  A
N1290      O1294   1.262       .  A
N1290      O1293   1.262       .  A
C1295      C1296   1.399       .  A
C1295      C1300   1.394       .  A
C1295      H1302   1.085       .  S
C1296      C1297   1.409   1_565  A
C1297      C1298   1.398   1_545  A
C1298      C1299   1.403       .  A
C1299      C1300   1.413       .  A
C1300      N1301   1.429       .  S
N1301      O1305   1.262   1_565  A
N1301      O1306   1.262       .  A
N1304      O1307   1.262       .  A
C1309      C1310   1.402       .  A
C1309      C1314   1.391       .  A
C1309      H1316   1.083       .  S
C1310      C1311   1.403       .  A
C1311      C1312   1.387       .  A
C1311      N1318   1.435       .  S
C1312      C1313   1.392       .  A
C1312      H1317   1.084       .  S
C1313      C1314   1.405       .  A
C1314      N1315   1.432   1_565  S
N1315      O1319   1.262       .  A
N1315      O1320   1.262       .  A
N1318      O1322   1.263       .  A
N1318      O1321   1.260       .  A
C1323      C1324   1.410       .  A
C1323      C1328   1.392       .  A
C1323      H1330   1.083       .  S
C1324      C1325   1.410       .  A
C1325      C1326   1.392       .  A
C1325      N1332   1.429       .  S
C1326      C1327   1.398       .  A
C1326      H1331   1.084       .  S
C1327      C1328   1.403       .  A
C1328      N1329   1.440       .  S
N1329      O1333   1.263       .  A
N1329      O1334   1.262       .  A
N1332      O1336   1.262       .  A
N1332      O1335   1.262       .  A
C1337      C1338   1.411       .  A
C1337      C1342   1.415       .  A
C1337      H1344   1.083       .  S
C1338      C1339   1.412       .  A
C1339      C1340   1.384       .  A
C1339      N1346   1.437       .  S
C1340      C1805   1.398       .  A
C1340      H1809   1.078       .  S
C1341      C1804   1.399   1_554  A
C1341      C1806   1.413   1_554  A
C1342      C1805   1.411       .  A
C1342      N1807   1.426       .  S
N1343      C1806   1.426   1_554  S
N1343      O1347   1.262       .  A
N1343      O1348   1.262       .  A
H1345      C1804   1.079   1_554  S
N1346      O1350   1.262       .  A
N1346      O1349   1.263       .  A
C1351      C1352   1.395       .  A
C1351      C1356   1.387       .  A
C1351      H1358   1.082       .  S
C1352      C1353   1.409       .  A
C1353      C1354   1.386       .  A
C1353      N1360   1.431       .  S
C1354      C1355   1.395       .  A
C1354      H1359   1.084       .  S
C1355      C1356   1.401       .  A
C1356      N1357   1.429       .  S
N1357      O1361   1.260       .  A
N1357      O1362   1.261       .  A
N1360      O1364   1.262       .  A
N1360      O1363   1.262       .  A
C1365      C1366   1.395       .  A
C1365      C1370   1.381       .  A
C1365      H1372   1.084       .  S
C1367      C1368   1.415       .  A
C1367      N1374   1.420       .  S
C1368      H1373   1.083       .  S
C1369      C1370   1.419       .  A
C1370      N1371   1.444       .  S
N1371      O1375   1.262       .  A
N1371      O1376   1.263       .  A
N1374      O1378   1.261       .  A
N1374      O1377   1.261       .  A
C1379      C1380   1.409       .  A
C1379      C1384   1.402       .  A
C1379      H1386   1.084       .  S
C1380      C1381   1.409       .  A
C1380      N1406   1.440   1_554  S
C1382      H1387   1.084       .  S
C1383      C1384   1.406       .  A
C1384      N1385   1.429       .  S
N1385      O1389   1.262       .  A
N1385      O1390   1.262       .  A
N1388      O1392   1.262       .  A
N1388      O1855   1.262       .  A
O1391      N1852   1.262       .  A
C1393      C1395   1.561       .  S
C1393      C1397   1.547       .  S
C1393      C1396   1.515       .  S
C1393      C1816   1.514       .  S
C1394      C1398   1.574       .  S
C1394      C1400   1.568       .  S
C1394      C1399   1.550       .  S
C1394      C1833   1.517       .  S
C1395      C1403   1.405       .  A
C1395      C1398   1.383       .  A
C1396      C1407   1.357       .  A
C1396      C1399   1.384       .  A
C1397      C1411   1.397       .  A
C1397      C1400   1.383       .  A
C1398      C1401   1.398       .  A
C1399      C1405   1.404       .  A
C1401      N1402   1.353       .  A
C1401      H1414   1.078       .  S
N1402      C1403   1.366       .  A
N1402      C1525   1.460       .  S
C1403      H1404   1.079       .  S
C1405      N1406   1.372       .  A
N1406      C1407   1.344       .  A
C1407      H1413   1.084       .  S
C1408      N1409   1.363       .  A
C1408      H1410   1.081   1_545  S
N1409      C1484   1.456   1_545  S
C1411      H1412   1.076       .  S
O1416      C1431   1.236       .  A
O1416     Al1424   1.781       .  S
C1417      O1427   1.264       .  A
C1417      O1418   1.278       .  A
C1417      C1788   1.466       .  S
O1418     Al1420   1.965       .  S
O1419      C1421   1.251       .  A
O1419     Al1420   1.862       .  S
Al1420     O1428   1.855       .  S
Al1420     O1430   1.944       .  S
Al1420     O1429   1.735       .  S
C1421      O1434   1.258       .  A
C1421      C1521   1.478       .  S
O1422      C1432   1.240       .  A
O1422     Al1424   1.788       .  S
O1423      C1436   1.274       .  A
O1423     Al1433   1.925       .  S
Al1424     O1437   1.938       .  S
Al1424     O1434   1.955       .  S
Al1424     O1429   1.769       .  S
O1425      C1432   1.285       .  A
O1425     Al1433   2.041       .  S
O1426      C1435   1.277       .  A
O1426     Al1433   2.029       .  S
O1427     Al1433   1.831       .  S
O1428      C1435   1.244       .  A
O1429     Al1433   1.783       .  S
O1430      C1431   1.280       .  A
C1431      C1819   1.429       .  S
C1432      C1502   1.448       .  S
C1435      C1488   1.503       .  S
C1436      O1437   1.271       .  A
C1436      C1802   1.482       .  S
C1438      C1440   1.551       .  S
C1438      C1442   1.569       .  S
C1438      C1441   1.512       .  S
C1438      C1774   1.513       .  S
C1439      C1443   1.586       .  S
C1439      C1445   1.560       .  S
C1439      C1444   1.532       .  S
C1439      C1791   1.507       .  S
C1440      C1448   1.392       .  A
C1440      C1443   1.391       .  A
C1441      C1452   1.354       .  A
C1441      C1444   1.369       .  A
C1442      C1456   1.407       .  A
C1442      C1445   1.386       .  A
C1443      C1446   1.412       .  A
C1444      C1450   1.399       .  A
C1445      C1453   1.398       .  A
C1446      N1447   1.372       .  A
C1446      H1459   1.082       .  S
N1447      C1448   1.356       .  A
N1447      C1503   1.463       .  S
C1448      H1449   1.074       .  S
C1450      N1451   1.364       .  A
C1450      H1460   1.082       .  S
N1451      C1452   1.353       .  A
N1451      C1805   1.442       .  S
C1452      H1458   1.084       .  S
C1453      N1454   1.359       .  A
C1453      H1455   1.078       .  S
N1454      C1456   1.364       .  A
N1454      C1506   1.464       .  S
C1456      H1457   1.078       .  S
O1461      C1476   1.235   1_545  A
C1462      O1463   1.277       .  A
O1463     Al1465   1.999       .  S
O1464     Al1465   1.857       .  S
Al1465     O1473   1.857       .  S
Al1465     O1475   1.965       .  S
Al1465     O1474   1.739       .  S
C1466      O1479   1.270       .  A
C1466      C1499   1.479       .  S
O1467      C1477   1.240       .  A
O1467     Al1469   1.778       .  S
Al1469     O1482   1.972       .  S
Al1469     O1479   1.995       .  S
O1470      C1477   1.290       .  A
O1470     Al1478   2.047       .  S
O1471      C1480   1.279       .  A
O1472     Al1478   1.832       .  S
O1473      C1480   1.248       .  A
O1475      C1476   1.283       .  A
C1476      C1777   1.421       .  S
C1477      C1524   1.453       .  S
C1480      C1510   1.490       .  S
C1481      O1482   1.277       .  A
C1481      C1847   1.485       .  S
O1483      C1498   1.264   1_545  A
C1484      O1494   1.261       .  A
C1484      O1485   1.263   1_565  A
O1485     Al1487   1.938   1_545  S
O1486      C1488   1.260       .  A
Al1487     O1495   1.956       .  S
Al1487     O1497   1.881       .  S
Al1487     O1496   1.792       .  S
C1488      O1501   1.288       .  A
O1489      C1499   1.272       .  A
O1489     Al1491   2.000       .  S
O1490      C1503   1.261       .  A
O1490     Al1500   1.934       .  S
Al1491     O1501   1.982       .  S
O1492     Al1500   1.868   1_545  S
O1493      C1502   1.251       .  A
O1493     Al1500   1.837       .  S
O1494     Al1500   1.925       .  S
O1495      C1502   1.271       .  A
O1496     Al1500   1.762       .  S
O1497      C1498   1.259       .  A
C1498      C1760   1.467       .  S
C1503      O1504   1.278       .  A
O1505      C1520   1.272       .  A
O1505     Al1513   1.930       .  S
C1506      O1516   1.270       .  A
C1506      O1507   1.265       .  A
O1507     Al1509   1.944       .  S
O1508      C1510   1.258       .  A
O1508     Al1509   1.924       .  S
Al1509     O1517   1.952       .  S
Al1509     O1519   1.867       .  S
Al1509     O1518   1.793       .  S
C1510      O1523   1.278       .  A
O1511      C1521   1.274       .  A
O1511     Al1513   2.002       .  S
O1512      C1525   1.266       .  A
O1512     Al1522   1.958       .  S
Al1513     O1526   1.964       .  S
Al1513     O1523   1.952       .  S
Al1513     O1518   1.770       .  S
O1514      C1521   1.250       .  A
O1514     Al1522   1.858       .  S
O1515      C1524   1.257       .  A
O1515     Al1522   1.869       .  S
O1516     Al1522   1.952       .  S
O1517      C1524   1.270       .  A
O1518     Al1522   1.754       .  S
O1519      C1520   1.259       .  A
C1520      C1746   1.473       .  S
C1525      O1526   1.272       .  A
C1527      C1529   1.569       .  S
C1527      C1531   1.566       .  S
C1527      C1530   1.544       .  S
C1527      C1704   1.521       .  S
C1528      C1532   1.547       .  S
C1528      C1534   1.550       .  S
C1528      C1533   1.550       .  S
C1528      C1721   1.501       .  S
C1529      C1537   1.413       .  A
C1529      C1532   1.368       .  A
C1530      C1541   1.361       .  A
C1530      C1533   1.404       .  A
C1531      C1545   1.413       .  A
C1531      C1534   1.367       .  A
C1532      C1535   1.392       .  A
C1533      C1539   1.399       .  A
C1535      N1536   1.356       .  A
C1535      H1548   1.083       .  S
N1536      C1537   1.365       .  A
N1536      C1637   1.459       .  S
C1537      H1538   1.073       .  S
C1539      N1540   1.372       .  A
N1540      C1541   1.353       .  A
N1540      C1732   1.445       .  S
C1541      H1547   1.083       .  S
C1542      N1543   1.348       .  A
C1542      H1544   1.082       .  S
N1543      C1640   1.456       .  S
C1545      H1546   1.078       .  S
O1550      C1565   1.239       .  A
O1550     Al1558   1.778       .  S
C1551      O1561   1.252       .  A
C1551      O1552   1.270       .  A
C1551      C1679   1.459       .  S
O1552     Al1554   1.931       .  S
O1553      C1555   1.245       .  A
O1553     Al1554   1.892       .  S
Al1554     O1562   1.864       .  S
Al1554     O1564   1.992       .  S
Al1554     O1563   1.734       .  S
C1555      O1568   1.271       .  A
C1555      C1633   1.480       .  S
O1556      C1566   1.250       .  A
O1556     Al1558   1.776       .  S
O1557      C1570   1.264       .  A
O1557     Al1567   1.896       .  S
Al1558     O1571   1.945       .  S
Al1558     O1568   2.023       .  S
Al1558     O1563   1.795       .  S
O1559      C1566   1.290       .  A
O1559     Al1567   2.029       .  S
O1560      C1569   1.287       .  A
O1560     Al1567   2.037       .  S
O1561     Al1567   1.840       .  S
O1562      C1569   1.254       .  A
O1563     Al1567   1.758       .  S
O1564      C1565   1.289       .  A
C1565      C1707   1.430       .  S
C1566      C1658   1.444       .  S
C1569      C1644   1.510       .  S
C1570      O1571   1.271       .  A
C1570      C1693   1.467       .  S
C1572      C1574   1.563       .  S
C1572      C1576   1.552       .  S
C1572      C1575   1.510       .  S
C1572      C1662   1.503       .  S
C1573      C1577   1.573       .  S
C1573      C1579   1.568       .  S
C1573      C1578   1.527       .  S
C1573      C1676   1.518       .  S
C1574      C1582   1.400       .  A
C1574      C1577   1.388       .  A
C1575      C1586   1.363       .  A
C1575      C1578   1.374       .  A
C1576      C1590   1.398       .  A
C1576      C1579   1.392       .  A
C1577      C1580   1.405       .  A
C1578      C1584   1.386       .  A
C1579      C1587   1.394       .  A
C1580      N1581   1.366       .  A
C1580      H1593   1.078       .  S
N1581      C1582   1.364       .  A
N1581      C1659   1.461       .  S
C1582      H1583   1.082       .  S
C1584      N1585   1.358       .  A
C1584      H1594   1.082       .  S
N1585      C1586   1.350       .  A
C1586      H1592   1.083       .  S
C1587      N1588   1.360       .  A
C1587      H1589   1.079       .  S
N1588      C1590   1.362       .  A
N1588      C1618   1.454       .  S
C1590      H1591   1.080       .  S
O1595      C1610   1.243       .  A
C1596      O1597   1.274       .  A
O1597     Al1599   1.936       .  S
O1598     Al1599   1.883       .  S
Al1599     O1607   1.876       .  S
Al1599     O1609   1.925       .  S
Al1599     O1608   1.742       .  S
C1600      O1613   1.264       .  A
C1600      C1655   1.493       .  S
O1601      C1611   1.236       .  A
O1601     Al1603   1.806       .  S
O1602     Al1612   1.923       .  S
Al1603     O1616   1.963       .  S
Al1603     O1613   1.960       .  S
O1604      C1611   1.289       .  A
O1605      C1614   1.273       .  A
O1605     Al1612   2.013       .  S
O1607      C1614   1.252       .  A
O1608     Al1612   1.795       .  S
O1609      C1610   1.275       .  A
C1610      C1665   1.445       .  S
C1611      C1636   1.491       .  S
C1614      C1622   1.509       .  S
C1615      O1616   1.277       .  A
C1615      C1735   1.490       .  S
O1617      C1632   1.263       .  A
O1617     Al1625   1.884       .  S
C1618      O1628   1.266       .  A
C1618      O1619   1.285       .  A
O1619     Al1621   1.988       .  S
O1620      C1622   1.253       .  A
O1620     Al1621   1.879       .  S
Al1621     O1629   1.970       .  S
Al1621     O1631   1.898       .  S
Al1621     O1630   1.790       .  S
C1622      O1635   1.284       .  A
O1623      C1633   1.271       .  A
O1623     Al1625   1.977       .  S
O1624      C1637   1.263       .  A
O1624     Al1634   1.888       .  S
Al1625     O1638   2.041       .  S
Al1625     O1635   2.010       .  S
Al1625     O1630   1.779       .  S
O1626      C1633   1.251       .  A
O1626     Al1634   1.877       .  S
O1627      C1636   1.257       .  A
O1627     Al1634   1.877       .  S
O1628     Al1634   1.895       .  S
O1629      C1636   1.254       .  A
O1630     Al1634   1.766       .  S
O1631      C1632   1.263       .  A
C1632      C1749   1.475       .  S
C1637      O1638   1.290       .  A
O1639      C1654   1.268   1_545  A
C1640      O1650   1.277       .  A
C1640      O1641   1.260   1_565  A
O1641     Al1643   1.909   1_545  S
O1642      C1644   1.260       .  A
Al1643     O1651   1.958       .  S
Al1643     O1653   1.863       .  S
Al1643     O1652   1.810       .  S
C1644      O1657   1.288       .  A
O1645      C1655   1.268       .  A
O1645     Al1647   1.974       .  S
O1646      C1659   1.257       .  A
O1646     Al1656   1.914       .  S
Al1647     O1657   1.988       .  S
O1648     Al1656   1.873       .  S
O1649      C1658   1.245       .  A
O1649     Al1656   1.866       .  S
O1650     Al1656   1.972       .  S
O1651      C1658   1.265       .  A
O1652     Al1656   1.757       .  S
O1653      C1654   1.259       .  A
C1654      C1763   1.460       .  S
C1659      O1660   1.282       .  A
C1661      C1662   1.403       .  A
C1661      C1666   1.388       .  A
C1661      H1668   1.084       .  S
C1662      C1663   1.408       .  A
C1663      C1664   1.392       .  A
C1663      N1670   1.433       .  S
C1664      C1665   1.398       .  A
C1664      H1669   1.083       .  S
C1665      C1666   1.401       .  A
C1666      N1667   1.428       .  S
N1667      O1671   1.261   1_565  A
N1667      O1672   1.262   1_565  A
N1670      O1674   1.263       .  A
N1670      O1673   1.262       .  A
C1675      C1676   1.399       .  A
C1675      C1680   1.392       .  A
C1675      H1682   1.083       .  S
C1676      C1677   1.412       .  A
C1677      C1678   1.396       .  A
C1677      N1684   1.440       .  S
C1678      C1679   1.399       .  A
C1678      H1683   1.084       .  S
C1679      C1680   1.413       .  A
C1680      N1681   1.431       .  S
N1681      O1685   1.262       .  A
N1681      O1686   1.262       .  A
N1684      O1688   1.261       .  A
N1684      O1687   1.263       .  A
C1689      C1690   1.400       .  A
C1689      C1694   1.395       .  A
C1689      H1696   1.084       .  S
C1690      C1691   1.406       .  A
C1691      C1692   1.401       .  A
C1691      N1698   1.429       .  S
C1692      C1693   1.404       .  A
C1692      H1697   1.084       .  S
C1693      C1694   1.407       .  A
C1694      N1695   1.429       .  S
N1695      O1699   1.261       .  A
N1695      O1700   1.262       .  A
N1698      O1702   1.262       .  A
C1703      C1704   1.402       .  A
C1703      C1708   1.397       .  A
C1703      H1710   1.083       .  S
C1704      C1705   1.403       .  A
C1705      C1706   1.393       .  A
C1705      N1712   1.436       .  S
C1706      C1707   1.397       .  A
C1706      H1711   1.084       .  S
C1707      C1708   1.410       .  A
C1708      N1709   1.431       .  S
N1709      O1713   1.262       .  A
N1709      O1714   1.262       .  A
N1712      O1716   1.262       .  A
N1712      O1715   1.263       .  A
C1717      C1718   1.370       .  A
C1717      C1722   1.350       .  A
C1717      H1724   1.084       .  S
C1719      C1720   1.413       .  A
C1719      N1726   1.426       .  S
C1720      H1725   1.082       .  S
C1721      C1722   1.437       .  A
C1722      N1723   1.441       .  S
N1723      O1727   1.261       .  A
N1723      O1728   1.260       .  A
N1726      O1730   1.262       .  A
N1726      O1729   1.261       .  A
C1731      C1736   1.401       .  A
C1731      H1738   1.084       .  S
C1733      C1734   1.412       .  A
C1734      H1739   1.083       .  S
C1735      C1736   1.407       .  A
C1736      N1737   1.428       .  S
N1737      O1741   1.262       .  A
N1737      O1742   1.262       .  A
N1740      O1744   1.262       .  A
N1740      O1743   1.262       .  A
C1745      C1746   1.401       .  A
C1745      C1750   1.396       .  A
C1745      H1752   1.084       .  S
C1746      C1747   1.413       .  A
C1747      C1748   1.395       .  A
C1747      N1754   1.430       .  S
C1748      C1749   1.402   1_655  A
C1748      H1753   1.084   1_655  S
C1749      C1750   1.414   1_455  A
C1750      N1751   1.429       .  S
N1751      O1755   1.262   1_655  A
N1751      O1756   1.262       .  A
N1754      O1758   1.262       .  A
N1754      O1757   1.262       .  A
C1759      C1760   1.401       .  A
C1759      C1764   1.389       .  A
C1759      H1766   1.084   1_565  S
C1760      C1761   1.412       .  A
C1761      C1762   1.398       .  A
C1762      C1763   1.400       .  A
C1763      C1764   1.408       .  A
C1764      N1765   1.430   1_565  S
N1765      O1769   1.262       .  A
N1765      O1770   1.262   1_545  A
N1768      O1771   1.262       .  A
C1773      C1774   1.401       .  A
C1773      C1778   1.390       .  A
C1773      H1780   1.083       .  S
C1774      C1775   1.405       .  A
C1775      C1776   1.387       .  A
C1775      N1782   1.437       .  S
C1776      C1777   1.392       .  A
C1776      H1781   1.084       .  S
C1777      C1778   1.404       .  A
C1778      N1779   1.430   1_565  S
N1779      O1783   1.262       .  A
N1779      O1784   1.262       .  A
N1782      O1786   1.263       .  A
N1782      O1785   1.260       .  A
C1787      C1788   1.411       .  A
C1787      C1792   1.392       .  A
C1787      H1794   1.083       .  S
C1788      C1789   1.410       .  A
C1789      C1790   1.393       .  A
C1789      N1796   1.429       .  S
C1790      C1791   1.398       .  A
C1790      H1795   1.084       .  S
C1791      C1792   1.400       .  A
C1792      N1793   1.439       .  S
N1793      O1797   1.263       .  A
N1793      O1798   1.263       .  A
N1796      O1800   1.262       .  A
N1796      O1799   1.262       .  A
C1801      C1802   1.411       .  A
C1801      C1806   1.417       .  A
C1801      H1808   1.083       .  S
C1802      C1803   1.411       .  A
C1803      C1804   1.383       .  A
C1803      N1810   1.436       .  S
N1807      O1811   1.262       .  A
N1807      O1812   1.262       .  A
N1810      O1814   1.262       .  A
N1810      O1813   1.264       .  A
C1815      C1816   1.393       .  A
C1815      C1820   1.392       .  A
C1815      H1822   1.082       .  S
C1816      C1817   1.406       .  A
C1817      C1818   1.385       .  A
C1817      N1824   1.431       .  S
C1818      C1819   1.396       .  A
C1818      H1823   1.084       .  S
C1819      C1820   1.408       .  A
C1820      N1821   1.440       .  S
N1821      O1825   1.263       .  A
N1821      O1826   1.261       .  A
N1824      O1828   1.262       .  A
N1824      O1827   1.262       .  A
C1829      C1830   1.395       .  A
C1829      C1834   1.381       .  A
C1829      H1836   1.084       .  S
C1831      C1832   1.416       .  A
C1831      N1838   1.420       .  S
C1832      H1837   1.083       .  S
C1833      C1834   1.420       .  A
C1834      N1835   1.444       .  S
N1835      O1839   1.262       .  A
N1835      O1840   1.263       .  A
N1838      O1842   1.261       .  A
N1838      O1841   1.261       .  A
C1843      C1844   1.410       .  A
C1843      C1848   1.402       .  A
C1843      H1850   1.084       .  S
C1844      C1845   1.408       .  A
C1846      H1851   1.084       .  S
C1847      C1848   1.407       .  A
C1848      N1849   1.430       .  S
N1849      O1853   1.262       .  A
N1849      O1854   1.262       .  A
N1852      O1856   1.262       .  A
