geometry optimzed in LAMMPS
_audit_creation_date              2020-12-01 
_audit_creation_method            'lammps2cif' 
_symmetry_space_group_name_H-M    'P1' 
_symmetry_Int_Tables_number       1 
_symmetry_cell_setting            triclinic 
loop_ 
_symmetry_equiv_pos_as_xyz 
  x,y,z 
_cell_length_a                    44.31892114 
_cell_length_b                    29.90891982074999 
_cell_length_c                    42.510685260844966 
_cell_angle_alpha                 90.28314607882375 
_cell_angle_beta                  89.73867488398557 
_cell_angle_gamma                 89.75292382227157 
loop_ 
_atom_site_label 
_atom_site_type_symbol 
_atom_site_fract_x 
_atom_site_fract_y 
_atom_site_fract_z 
_atom_site_charge 
O1          O  0.59453615  0.49477924  0.43011607    -0.72700
O2          O  0.60177577  0.41498380  0.00699503    -0.73600
O3          O  0.55432575  0.45262925  0.47007632    -0.62300
O4          O  0.64346712  0.45754980  0.46485320    -0.70700
O5          O  0.64419599  0.51456572  0.00028638    -0.70200
O6          O  0.55440859  0.51275689  0.00078604    -0.61500
O7          O  0.59825793  0.47451834  0.03825294    -0.74000
O8          O  0.59750268  0.55391344  0.46174221    -0.72800
Cu9        Cu  0.59857865  0.45289480  0.46674478     1.04600
Cu10       Cu  0.59900562  0.51597689  0.00163198     1.04300
C11         C  0.59346327  0.53705076  0.43441425     0.93500
C12         C  0.59817307  0.43222351  0.03439343     0.92700
C13         C  0.54092230  0.48135761  0.98620407     0.84800
C14         C  0.65773918  0.48634788  0.48114942     0.91100
O15         O  0.35682264  0.46095182  0.04029053    -0.72700
O16         O  0.35142430  0.54461370  0.46524647    -0.73600
O17         O  0.30851222  0.49894028  0.00412132    -0.62300
O18         O  0.39811594  0.50425627  0.00240866    -0.70700
O19         O  0.39861394  0.44661639  0.47077939    -0.70200
O20         O  0.30861383  0.44563546  0.46865382    -0.61500
O21         O  0.35577570  0.48695158  0.43248471    -0.74000
O22         O  0.35550386  0.40225045  0.00821305    -0.72800
Cu23       Cu  0.35360319  0.50374280  0.00430955     1.04600
Cu24       Cu  0.35412411  0.44368933  0.46891727     1.04300
C25         C  0.35920537  0.41887137  0.03579988     0.93500
C26         C  0.35555558  0.52913083  0.43743190     0.92700
C27         C  0.29486059  0.47153337  0.98606777     0.84800
C28         C  0.41283095  0.47468497  0.98697546     0.91100
C29         C  0.37001737  0.63482266  0.38855874     0.86800
C30         C  0.35897882  0.61367136  0.35762630    -0.53500
C31         C  0.36565295  0.56920433  0.35438152     0.09700
C32         C  0.38250265  0.54919882  0.38273810     0.20700
C33         C  0.35609960  0.60543180  0.41455460    -0.54200
C34         C  0.36234044  0.56076898  0.41157617     0.09800
C35         C  0.40375691  0.62318820  0.39013772    -0.53700
C36         C  0.41057252  0.57901253  0.38690173     0.10400
H37         H  0.34645476  0.63219259  0.34002519     0.14900
H38         H  0.38791592  0.51305534  0.38027035     0.00600
H39         H  0.34432918  0.61781952  0.43509255     0.15200
H40         H  0.42115521  0.64826552  0.39349046     0.15000
C41         C  0.38121005  0.32161173  0.09115419     0.86800
C42         C  0.36831011  0.34663564  0.12008704    -0.53500
C43         C  0.37214528  0.39189653  0.11964800     0.09700
C44         C  0.38840131  0.40868852  0.08987409     0.20700
C45         C  0.36571137  0.34464216  0.06281391    -0.54200
C46         C  0.36920857  0.39020884  0.06230346     0.09800
C47         C  0.41408032  0.33686403  0.08841923    -0.53700
C48         C  0.41822443  0.38181051  0.08797979     0.10400
H49         H  0.35648977  0.32985454  0.13907507     0.14900
H50         H  0.39170883  0.44546738  0.08941145     0.00600
H51         H  0.35383071  0.32779198  0.04412293     0.15200
H52         H  0.43293581  0.31353542  0.08699669     0.15000
N53         N  0.34910890  0.45847541  0.18850338    -0.27000
N54         N  0.32281373  0.45159806  0.17459432    -0.34900
C55         C  0.32743163  0.42892969  0.14754195     0.01300
C56         C  0.35802539  0.42154443  0.14369556     0.07400
C57         C  0.37113607  0.44047758  0.17020021    -0.05700
H58         H  0.30963623  0.41698013  0.13235595     0.08000
H59         H  0.39474001  0.43911047  0.17651612     0.09200
Cu60       Cu  0.28081695  0.46861835  0.19367131     0.44200
Cu61       Cu  0.35306415  0.48750302  0.23380293     0.42000
Cu62       Cu  0.28129567  0.49070526  0.27572420     0.43900
N63         N  0.24148947  0.48021660  0.21961953    -0.34400
N64         N  0.24183030  0.48496114  0.25052395    -0.28600
C65         C  0.21339561  0.48979391  0.26124786    -0.04700
C66         C  0.19425853  0.48892181  0.23574560     0.07500
C67         C  0.21271692  0.48294249  0.20966670     0.01300
H68         H  0.20726179  0.49519765  0.28559130     0.08900
H69         H  0.20573917  0.48013424  0.18541981     0.08000
N70         N  0.32153890  0.51100577  0.29529632    -0.35800
N71         N  0.34786264  0.51146217  0.28045774    -0.28000
C72         C  0.36836808  0.53064759  0.29972469    -0.03300
C73         C  0.35405900  0.54234565  0.32778522     0.05400
C74         C  0.32446121  0.52973342  0.32390214     0.03500
H75         H  0.39159695  0.53712274  0.29338134     0.08600
H76         H  0.30604641  0.53539194  0.34022495     0.07400
C77         C  0.37822741  0.83020915  0.40364308     0.86800
C78         C  0.41243905  0.83949175  0.40293427    -0.53500
C79         C  0.42002877  0.88360262  0.40441928     0.09700
C80         C  0.39245710  0.91514539  0.40707989     0.20700
C81         C  0.36773860  0.85350408  0.43438530    -0.54200
C82         C  0.37449974  0.89805125  0.43573834     0.09800
C83         C  0.36487436  0.85911345  0.37735296    -0.53700
C84         C  0.37227816  0.90321295  0.37915274     0.10400
H85         H  0.42937061  0.81320744  0.40113410     0.14900
H86         H  0.39847304  0.95112516  0.40843254     0.00600
H87         H  0.35703081  0.83720156  0.45408983     0.15200
H88         H  0.34997079  0.84595860  0.35934715     0.15000
C89         C  0.37580561  0.06457607  0.14756836     0.86800
C90         C  0.36271088  0.04051471  0.11904682    -0.53500
C91         C  0.37449718  0.05388550  0.09100528     0.09700
C92         C  0.39882070  0.09070835  0.09419496     0.20700
C93         C  0.40990929  0.05645753  0.14487146    -0.54200
C94         C  0.42258444  0.07072988  0.11717218     0.09800
C95         C  0.37141209  0.11436941  0.14117074    -0.53700
C96         C  0.38338167  0.12834954  0.11338603     0.10400
H97         H  0.34642259  0.01359118  0.12098271     0.14900
H98         H  0.40817627  0.10255815  0.07150653     0.00600
H99         H  0.42272149  0.03996658  0.16310771     0.15200
H100        H  0.36034836  0.13704757  0.15766468     0.15000
N101        N  0.34969958  0.97849898  0.31693814    -0.27000
N102        N  0.32325187  0.96992047  0.33017637    -0.34900
C103        C  0.32769808  0.94417448  0.35554614     0.01300
C104        C  0.35827982  0.93667298  0.35865797     0.07400
C105        C  0.37163520  0.95887190  0.33388873    -0.05700
H106        H  0.30985597  0.92962962  0.36953211     0.08000
H107        H  0.39518207  0.95765457  0.32712219     0.09200
Cu108      Cu  0.28143839  0.98655922  0.31148963     0.44200
Cu109      Cu  0.35484804  0.00803135  0.27313007     0.42000
Cu110      Cu  0.28433136  0.02915875  0.23391558     0.43900
N111        N  0.24299476  0.99879952  0.28503527    -0.34400
N112        N  0.24456894  0.01335725  0.25580725    -0.28600
C113        C  0.21672053  0.01599595  0.24367466    -0.04700
C114        C  0.19662022  0.00274327  0.26650178     0.07500
C115        C  0.21380007  0.99235487  0.29258483     0.01300
H116        H  0.21154217  0.02746232  0.22024568     0.08900
H117        H  0.20577055  0.98072065  0.31510379     0.08000
N118        N  0.32567786  0.03839527  0.21332813    -0.35800
N119        N  0.35178555  0.02993060  0.22695642    -0.28000
C120        C  0.37410405  0.03709150  0.20599480    -0.03300
C121        C  0.36115037  0.05089628  0.17796413     0.05400
C122        C  0.33050053  0.05157730  0.18369587     0.03500
H123        H  0.39782199  0.03292025  0.21103446     0.08600
H124        H  0.31288753  0.06050604  0.16729703     0.07400
O125        O  0.60680223  0.97538271  0.43688798    -0.72700
O126        O  0.60824911  0.05547444  0.01212833    -0.73600
O127        O  0.65399080  0.01847161  0.47258158    -0.62300
O128        O  0.56372695  0.01348299  0.47635136    -0.70700
O129        O  0.56702101  0.95274534  0.50606951    -0.70200
O130        O  0.65644507  0.96316689  0.50713955    -0.61500
O131        O  0.60736295  0.99682827  0.04390071    -0.74000
O132        O  0.61251551  0.91661720  0.46801755    -0.72800
Cu133      Cu  0.60841605  0.01810866  0.47326526     1.04600
Cu134      Cu  0.61139056  0.95560098  0.50726798     1.04300
C135        C  0.60686686  0.93312777  0.44090351     0.93500
C136        C  0.60529555  0.03900889  0.03966182     0.92700
C137        C  0.66941437  0.99262710  0.49024959     0.84800
C138        C  0.55131094  0.98221269  0.49201589     0.91100
O139        O  0.36650784  0.90875278  0.49054679    -0.72700
O140        O  0.36830844  0.98504355  0.06474331    -0.73600
O141        O  0.32183053  0.94513756  0.53227641    -0.62300
O142        O  0.41131616  0.95181054  0.52454035    -0.70700
O143        O  0.40757847  0.01187192  0.49420363    -0.70200
O144        O  0.31794779  0.00454522  0.50133951    -0.61500
O145        O  0.36550021  0.04630807  0.03556432    -0.74000
O146        O  0.36380664  0.96851947  0.45985183    -0.72800
Cu147      Cu  0.36691407  0.94645575  0.52949613     1.04600
Cu148      Cu  0.36312648  0.01066285  0.49696757     1.04300
C149        C  0.36733781  0.92637184  0.46326957     0.93500
C150        C  0.36890067  0.02753911  0.06228234     0.92700
C151        C  0.30574962  0.97370923  0.51770686     0.84800
C152        C  0.42345656  0.98205810  0.50768163     0.91100
C153        C  0.58825175  0.83476231  0.38494612     0.86800
C154        C  0.59890006  0.86190072  0.35622025    -0.53500
C155        C  0.59202688  0.90642536  0.35786184     0.09700
C156        C  0.57565365  0.92032990  0.38844313     0.20700
C157        C  0.60359641  0.85905947  0.41282505    -0.54200
C158        C  0.59709439  0.90380238  0.41466058     0.09800
C159        C  0.55466270  0.84550048  0.38854944    -0.53700
C160        C  0.54773459  0.88961427  0.39065637     0.10400
H161        H  0.61283647  0.84837129  0.33739009     0.14900
H162        H  0.57004656  0.95651463  0.38988094     0.00600
H163        H  0.61840586  0.84268024  0.42948610     0.15200
H164        H  0.53746726  0.81974145  0.38997143     0.15000
C165        C  0.59295290  0.13955765  0.09540696     0.86800
C166        C  0.60532318  0.11332092  0.12359417    -0.53500
C167        C  0.59792090  0.06907660  0.12349957     0.09700
C168        C  0.57891365  0.05445733  0.09519214     0.20700
C169        C  0.60456073  0.11361150  0.06620012    -0.54200
C170        C  0.59776791  0.06903255  0.06636271     0.09800
C171        C  0.55887039  0.13017613  0.09528814    -0.53700
C172        C  0.55134919  0.08618522  0.09559203     0.10400
H173        H  0.61893641  0.12842405  0.14195329     0.14900
H174        H  0.57283898  0.01846236  0.09534350     0.00600
H175        H  0.61587666  0.12830683  0.04623634     0.15200
H176        H  0.54183508  0.15641685  0.09623257     0.15000
N177        N  0.61294025  0.96918172  0.28824770    -0.27000
N178        N  0.63879195  0.96875061  0.30368623    -0.34900
C179        C  0.63437671  0.94995111  0.33200710     0.01300
C180        C  0.60431688  0.93834787  0.33480221     0.07400
C181        C  0.59143389  0.95062552  0.30648942    -0.05700
H182        H  0.65225014  0.94171440  0.34827496     0.08000
H183        H  0.56876106  0.94323471  0.29874678     0.09200
Cu184      Cu  0.68028307  0.98442516  0.28350173     0.44200
Cu185      Cu  0.60966241  0.98814381  0.24119653     0.42000
Cu186      Cu  0.68140547  0.98363818  0.19915465     0.43900
N187        N  0.71982581  0.98662717  0.25698478    -0.34400
N188        N  0.72022357  0.98213583  0.22603704    -0.28600
C189        C  0.74901922  0.98201269  0.21583395    -0.04700
C190        C  0.76755141  0.98756505  0.24159411     0.07500
C191        C  0.74837323  0.99058141  0.26728756     0.01300
H192        H  0.75583964  0.98016075  0.19142899     0.08900
H193        H  0.75468835  0.99482701  0.29162601     0.08000
N194        N  0.64117502  0.00392697  0.17901430    -0.35800
N195        N  0.61510127  0.00655509  0.19422353    -0.28000
C196        C  0.59486420  0.02732348  0.17570443    -0.03300
C197        C  0.60893353  0.03806157  0.14764028     0.05400
C198        C  0.63825487  0.02309139  0.15064931     0.03500
H199        H  0.57230261  0.03678885  0.18301441     0.08600
H200        H  0.65666936  0.02869064  0.13439969     0.07400
C201        C  0.57911832  0.63792510  0.38086771     0.86800
C202        C  0.54518158  0.62783696  0.38156545    -0.53500
C203        C  0.53818106  0.58341759  0.38116396     0.09700
C204        C  0.56610467  0.55243544  0.37989877     0.20700
C205        C  0.59234942  0.61132463  0.40857112    -0.54200
C206        C  0.58543393  0.56689811  0.40825257     0.09800
C207        C  0.59160188  0.61249518  0.35202275    -0.53700
C208        C  0.58458305  0.56815020  0.35135935     0.10400
H209        H  0.52803068  0.65384871  0.38301753     0.14900
H210        H  0.56051417  0.51626587  0.37954103     0.00600
H211        H  0.60648063  0.62580806  0.42668855     0.15200
H212        H  0.60666977  0.62707379  0.33473490     0.15000
C213        C  0.58805076  0.33468553  0.09223243     0.86800
C214        C  0.55372252  0.34319238  0.09182620    -0.53500
C215        C  0.54546625  0.38718146  0.09074167     0.09700
C216        C  0.57255737  0.41930875  0.09000668     0.20700
C217        C  0.59915842  0.35908493  0.06237735    -0.54200
C218        C  0.59164242  0.40337701  0.06159571     0.09800
C219        C  0.59989050  0.36288614  0.11971840    -0.53700
C220        C  0.59176896  0.40684189  0.11860231     0.10400
H221        H  0.53721459  0.31643083  0.09159329     0.14900
H222        H  0.56596061  0.45515829  0.08915183     0.00600
H223        H  0.61032343  0.34347253  0.04252705     0.15200
H224        H  0.61405759  0.34936420  0.13820356     0.15000
N225        N  0.61041932  0.47315555  0.18704950    -0.27000
N226        N  0.63687722  0.47123158  0.17258845    -0.34900
C227        C  0.63351589  0.45056672  0.14471929     0.01300
C228        C  0.60350446  0.43954186  0.14123359     0.07400
C229        C  0.58946785  0.45408188  0.16853482    -0.05700
H230        H  0.65194170  0.44095401  0.12932338     0.08000
H231        H  0.56644131  0.44757039  0.17564659     0.09200
Cu232      Cu  0.67755140  0.48797639  0.19326727     0.44200
Cu233      Cu  0.60542942  0.49309163  0.23357831     0.42000
Cu234      Cu  0.67690191  0.50014514  0.27666375     0.43900
N235        N  0.71665466  0.49299664  0.21949923    -0.34400
N236        N  0.71670837  0.49448124  0.25057129    -0.28600
C237        C  0.74553299  0.49404683  0.26064017    -0.04700
C238        C  0.76430987  0.49277505  0.23450802     0.07500
C239        C  0.74528266  0.49254275  0.20887388     0.01300
H240        H  0.75228554  0.49596444  0.28500672     0.08900
H241        H  0.75173856  0.49142955  0.18436631     0.08000
N242        N  0.63442755  0.51261888  0.29624245    -0.35800
N243        N  0.60861934  0.51027024  0.28077612    -0.28000
C244        C  0.58617924  0.52558887  0.29944732    -0.03300
C245        C  0.59839648  0.53792751  0.32801475     0.05400
C246        C  0.62899610  0.52970041  0.32502156     0.03500
H247        H  0.56318563  0.53100903  0.29183518     0.08600
H248        H  0.64635269  0.53896885  0.34161613     0.07400
O249        O  0.09852629  0.51327972  0.28911308    -0.72700
O250        O  0.09990579  0.43035524  0.21497239    -0.73600
O251        O  0.14561224  0.46851685  0.25412309    -0.62300
O252        O  0.05592772  0.47631866  0.24964951    -0.70700
O253        O  0.05921486  0.53626333  0.21915527    -0.70200
O254        O  0.14866952  0.52286305  0.21885663    -0.61500
O255        O  0.09962769  0.48774190  0.18207204    -0.74000
O256        O  0.10438203  0.57140033  0.25746970    -0.72800
Cu257      Cu  0.10025471  0.47013119  0.25306736     1.04600
Cu258      Cu  0.10358283  0.53170985  0.21827572     1.04300
C259        C  0.09874511  0.55543832  0.28484105     0.93500
C260        C  0.09718098  0.44578850  0.18715023     0.92700
C261        C  0.16131735  0.49372497  0.23631806     0.84800
C262        C  0.04353551  0.50783744  0.23416428     0.91100
O263        O  0.85567144  0.56851702  0.25419733    -0.72700
O264        O  0.85655679  0.48924030  0.17821496    -0.73600
O265        O  0.81012922  0.52495887  0.21734041    -0.62300
O266        O  0.89983888  0.53316218  0.21452118    -0.70700
O267        O  0.90297610  0.47246524  0.24431380    -0.70200
O268        O  0.81313453  0.46585145  0.24860978    -0.61500
O269        O  0.86014215  0.42828769  0.20754678    -0.74000
O270        O  0.86019446  0.50850210  0.28438396    -0.72800
Cu271      Cu  0.85510976  0.53091947  0.21497805     1.04600
Cu272      Cu  0.85883032  0.46652419  0.24726243     1.04300
C273        C  0.86047702  0.55094542  0.28106525     0.93500
C274        C  0.86023456  0.44695127  0.18056632     0.92700
C275        C  0.79740713  0.49458716  0.23359761     0.84800
C276        C  0.91541826  0.50460955  0.22964152     0.91100
C277        C  0.87248574  0.64808817  0.33940233     0.86800
C278        C  0.90656294  0.63813289  0.34086862    -0.53500
C279        C  0.91417382  0.59407950  0.33897829     0.09700
C280        C  0.88662257  0.56287998  0.33657290     0.20700
C281        C  0.86157057  0.62429822  0.30938961    -0.54200
C282        C  0.86846278  0.57976558  0.30805674     0.09800
C283        C  0.85920342  0.61990764  0.36644619    -0.53700
C284        C  0.86651024  0.57555737  0.36467653     0.10400
H285        H  0.92353597  0.66414944  0.34258365     0.14900
H286        H  0.89263832  0.52681450  0.33537215     0.00600
H287        H  0.84929239  0.64132427  0.29088081     0.15200
H288        H  0.84508052  0.63209487  0.38537557     0.15000
C289        C  0.86507163  0.41543540  0.09417899     0.86800
C290        C  0.85205449  0.43583716  0.12428219    -0.53500
C291        C  0.86511302  0.42105115  0.15118728     0.09700
C292        C  0.89034286  0.38555835  0.14528410     0.20700
C293        C  0.89893181  0.42497085  0.09596374    -0.54200
C294        C  0.91275206  0.40854073  0.12222927     0.09800
C295        C  0.86222973  0.36499832  0.09815092    -0.53700
C296        C  0.87547535  0.34881062  0.12470978     0.10400
H297        H  0.83549862  0.46267889  0.12442911     0.14900
H298        H  0.90105356  0.37248227  0.16693657     0.00600
H299        H  0.91102050  0.44253409  0.07754657     0.15200
H300        H  0.85128738  0.34363356  0.08092754     0.15000
N301        N  0.84381360  0.50078469  0.42712282    -0.27000
N302        N  0.81738831  0.50997128  0.41423440    -0.34900
C303        C  0.82185486  0.53575707  0.38890199     0.01300
C304        C  0.85245684  0.54255918  0.38543850     0.07400
C305        C  0.86580566  0.52000421  0.40998536    -0.05700
H306        H  0.80402069  0.55081384  0.37518926     0.08000
H307        H  0.88937305  0.52073212  0.41647260     0.09200
Cu308      Cu  0.77576085  0.49448123  0.43374095     0.44200
Cu309      Cu  0.84844533  0.47134570  0.47080970     0.42000
Cu310      Cu  0.77969047  0.48981355  0.01364287     0.43900
N311        N  0.73719933  0.48827384  0.46110935    -0.34400
N312        N  0.73923965  0.49383724  0.99074009    -0.28600
C313        C  0.71146455  0.49517607  0.00347848    -0.03100
C314        C  0.69102704  0.49011502  0.97941864     0.07500
C315        C  0.70809691  0.49038406  0.45241578     0.01300
H316        H  0.70665501  0.49731302  0.02836762     0.08900
H317        H  0.70036357  0.49425124  0.42852935     0.08000
N318        N  0.81839381  0.46238251  0.03152548    -0.35800
N319        N  0.84172645  0.44813998  0.01475911    -0.28000
C320        C  0.86180768  0.42904859  0.03418876    -0.03300
C321        C  0.85062413  0.43217048  0.06460747     0.05400
C322        C  0.82290678  0.45301525  0.06187354     0.03500
H323        H  0.88317466  0.41471985  0.02682482     0.08600
H324        H  0.80664867  0.45995964  0.08029348     0.07400
C325        C  0.87473802  0.84390139  0.34491221     0.86800
C326        C  0.86265831  0.87067258  0.37362359    -0.53500
C327        C  0.87173699  0.91435757  0.37431869     0.09700
C328        C  0.89186769  0.92779745  0.34633220     0.20700
C329        C  0.86461848  0.87112358  0.31635432    -0.54200
C330        C  0.87307797  0.91490313  0.31694531     0.09800
C331        C  0.90897522  0.85053653  0.34675755    -0.53700
C332        C  0.91824664  0.89377960  0.34734140     0.10400
H333        H  0.84886124  0.85753979  0.39239297     0.14900
H334        H  0.89918844  0.96325960  0.34697424     0.00600
H335        H  0.85175464  0.85671083  0.29714387     0.15200
H336        H  0.92482016  0.82280064  0.34847742     0.15000
C337        C  0.88087505  0.15362253  0.13939300     0.86800
C338        C  0.86970929  0.12838477  0.10991027    -0.53500
C339        C  0.87555475  0.08350504  0.10993726     0.09700
C340        C  0.89151775  0.06721445  0.13984141     0.20700
C341        C  0.86518177  0.12852233  0.16678992    -0.54200
C342        C  0.87069576  0.08337092  0.16691723     0.09800
C343        C  0.91422941  0.14085388  0.14243544    -0.53700
C344        C  0.92005115  0.09618405  0.14294239     0.10400
H345        H  0.85734328  0.14446609  0.09104849     0.14900
H346        H  0.89631356  0.03073320  0.13998888     0.00600
H347        H  0.85075815  0.14363866  0.18443296     0.15200
H348        H  0.93201048  0.16556815  0.14477516     0.15000
N349        N  0.85611691  0.01816808  0.04012136    -0.27000
N350        N  0.82960692  0.02107578  0.05453221    -0.34900
C351        C  0.83307779  0.04247396  0.08218039     0.01300
C352        C  0.86314264  0.05320723  0.08570849     0.07400
C353        C  0.87714975  0.03755051  0.05856291    -0.05700
H354        H  0.81475105  0.05183940  0.09777003     0.08000
H355        H  0.90047145  0.04238882  0.05185901     0.09200
Cu356      Cu  0.78846011  0.00294260  0.03483569     0.44200
Cu357      Cu  0.86151402  0.99725305  0.49371020     0.42000
Cu358      Cu  0.79009892  0.00101469  0.45228071     0.43900
N359        N  0.74947895  0.00081592  0.50852252    -0.34400
N360        N  0.75022012  0.00314017  0.47751463    -0.28600
C361        C  0.72190649  0.00154809  0.46629347    -0.04700
C362        C  0.70238838  0.99707439  0.49146431     0.07500
C363        C  0.72058247  0.99357400  0.01750579     0.01300
H364        H  0.71610980  0.00161542  0.44163294     0.08900
H365        H  0.71330552  0.99201024  0.04175368     0.08000
N366        N  0.83008163  0.97993221  0.43181849    -0.35800
N367        N  0.85627380  0.97708312  0.44651862    -0.28000
C368        C  0.87617032  0.95605193  0.42724329    -0.03300
C369        C  0.86164777  0.94556581  0.39928284     0.05400
C370        C  0.83249923  0.96079531  0.40327018     0.03500
H371        H  0.89882603  0.94637840  0.43384137     0.08600
H372        H  0.81379274  0.95553672  0.38742465     0.07400
O373        O  0.10523354  0.07293302  0.23639740    -0.72700
O374        O  0.10135031  0.99559825  0.31316927    -0.73600
O375        O  0.14891483  0.03370270  0.27817077    -0.62300
O376        O  0.05960539  0.03501401  0.27177650    -0.70700
O377        O  0.06099309  0.97350434  0.24237969    -0.70200
O378        O  0.15061703  0.97326651  0.24754233    -0.61500
O379        O  0.10241172  0.93424529  0.28351973    -0.74000
O380        O  0.10553473  0.01168628  0.20662207    -0.72800
Cu381      Cu  0.10402096  0.03635905  0.27599124     1.04600
Cu382      Cu  0.10536746  0.97096303  0.24400423     1.04300
C383        C  0.10283826  0.05406910  0.20948658     0.93500
C384        C  0.09992327  0.95308065  0.31042868     0.92700
C385        C  0.16384451  0.00309104  0.26402779     0.84800
C386        C  0.04628465  0.00539194  0.25531273     0.91100
O387        O  0.90208838  0.03542666  0.25685466    -0.72700
O388        O  0.81297901  0.02085130  0.25914652    -0.73600
O389        O  0.86302036  0.98742985  0.29536606    -0.62300
O390        O  0.85563998  0.06939481  0.22023393    -0.70700
O391        O  0.86252489  0.01116651  0.18839785    -0.70200
O392        O  0.86314013  0.92920204  0.26282901    -0.61500
O393        O  0.81642842  0.96617896  0.22376368    -0.74000
O394        O  0.90623215  0.97471273  0.22693852    -0.72800
Cu395      Cu  0.85786605  0.03031116  0.25900460     1.04600
Cu396      Cu  0.86182004  0.96820639  0.22435833     1.04300
C397        C  0.91826204  0.00695518  0.24203067     0.93500
C398        C  0.80052293  0.99167796  0.24149753     0.92700
C399        C  0.86580853  0.94538724  0.29059938     0.84800
C400        C  0.86149718  0.05337288  0.19287001     0.91100
C401        C  0.08115221  0.65498213  0.34028118     0.86800
C402        C  0.09419969  0.62997848  0.36907838    -0.53500
C403        C  0.08909434  0.58484607  0.36891369     0.09700
C404        C  0.07121148  0.56857348  0.34006078     0.20700
C405        C  0.09440840  0.63042846  0.31146354    -0.54200
C406        C  0.08974005  0.58526069  0.31137931     0.09800
C407        C  0.04759563  0.64194936  0.34112650    -0.53700
C408        C  0.04214813  0.59729609  0.34023947     0.10400
H409        H  0.10598067  0.64618994  0.38827961     0.14900
H410        H  0.06678514  0.53205234  0.33990453     0.00600
H411        H  0.10620513  0.64752161  0.29261431     0.15200
H412        H  0.02916430  0.66583499  0.34291027     0.15000
C413        C  0.08513343  0.34217664  0.13481388     0.86800
C414        C  0.09645667  0.36732144  0.10527523    -0.53500
C415        C  0.08795387  0.41126465  0.10414795     0.09700
C416        C  0.06942930  0.42693558  0.13284311     0.20700
C417        C  0.09733284  0.37038669  0.16222831    -0.54200
C418        C  0.08945330  0.41457650  0.16130812     0.09800
C419        C  0.05096572  0.35054706  0.13506307    -0.53700
C420        C  0.04254717  0.39428303  0.13425301     0.10400
H421        H  0.11124388  0.35408897  0.08729394     0.14900
H422        H  0.06266133  0.46271240  0.13202313     0.00600
H423        H  0.11083872  0.35634137  0.18104778     0.15200
H424        H  0.03453949  0.32364738  0.13508718     0.15000
N425        N  0.10800567  0.51875211  0.43873176    -0.27000
N426        N  0.13424318  0.51903472  0.42360405    -0.34900
C427        C  0.13097379  0.54084593  0.39615966     0.01300
C428        C  0.10132733  0.55468880  0.39343915     0.07400
C429        C  0.08738883  0.54030864  0.42089200    -0.05700
H430        H  0.14920020  0.54782656  0.37994514     0.08000
H431        H  0.06434964  0.54695904  0.42803621     0.09200
Cu432      Cu  0.17504762  0.49534420  0.44162384     0.44200
Cu433      Cu  0.10369600  0.49514740  0.98604194     0.42000
Cu434      Cu  0.17495698  0.48072836  0.02583392     0.43900
N435        N  0.21384468  0.48269973  0.46782673    -0.34400
N436        N  0.21429996  0.47894000  0.99990000    -0.28600
C437        C  0.24255992  0.47387336  0.01065412    -0.04700
C438        C  0.26184197  0.47227184  0.98512245     0.07500
C439        C  0.24266518  0.47725665  0.45816838     0.01300
H440        H  0.24858747  0.47171704  0.03520386     0.08900
H441        H  0.25001460  0.47755221  0.43390666     0.08000
N442        N  0.13385592  0.46888616  0.04692019    -0.35800
N443        N  0.10742964  0.47228430  0.03276880    -0.28000
C444        C  0.08607714  0.45551777  0.05221492    -0.03300
C445        C  0.09996484  0.44141031  0.07973357     0.05400
C446        C  0.13016804  0.45009851  0.07525690     0.03500
H447        H  0.06265295  0.45094271  0.04594376     0.08600
H448        H  0.14848928  0.44024192  0.09051009     0.07400
C449        C  0.09458617  0.91016583  0.39456689     0.86800
C450        C  0.10628734  0.93783439  0.36704992    -0.53500
C451        C  0.09435277  0.92618454  0.33877387     0.09700
C452        C  0.07140268  0.88746878  0.34058395     0.20700
C453        C  0.06019442  0.91554985  0.39336278    -0.54200
C454        C  0.04766812  0.90348302  0.36521561     0.09800
C455        C  0.10034777  0.86139610  0.38540758    -0.53700
C456        C  0.08854069  0.84863052  0.35705618     0.10400
H457        H  0.12208236  0.96525035  0.36983813     0.14900
H458        H  0.06172175  0.87905081  0.31734992     0.00600
H459        H  0.04674029  0.92790465  0.41293572     0.15200
H460        H  0.11151954  0.83846331  0.40130330     0.15000
C461        C  0.08817603  0.14559433  0.14764953     0.86800
C462        C  0.05420249  0.13556305  0.14830141    -0.53500
C463        C  0.04699557  0.09176099  0.15225589     0.09700
C464        C  0.07475909  0.06085199  0.15492619     0.20700
C465        C  0.10048510  0.12502411  0.17829079    -0.54200
C466        C  0.09392600  0.08065701  0.18184712     0.09800
C467        C  0.10097580  0.11422796  0.12177895    -0.53700
C468        C  0.09369374  0.07036860  0.12561633     0.10400
H469        H  0.03702887  0.16136971  0.14589098     0.14900
H470        H  0.06898342  0.02500967  0.15794018     0.00600
H471        H  0.11344423  0.14379286  0.19544410     0.15200
H472        H  0.11655263  0.12326345  0.10339136     0.15000
N473        N  0.11878048  0.94367482  0.47407798    -0.27000
N474        N  0.14501593  0.93495780  0.46044025    -0.34900
C475        C  0.14018238  0.92165369  0.43071175     0.01300
C476        C  0.10945460  0.92238528  0.42517209     0.07400
C477        C  0.09652557  0.93646420  0.45328332    -0.05700
H478        H  0.15778635  0.91275276  0.41409436     0.08000
H479        H  0.07283406  0.94140848  0.45844215     0.09200
Cu480      Cu  0.18645284  0.94391876  0.48168761     0.44200
Cu481      Cu  0.11459340  0.96650891  0.51984920     0.42000
Cu482      Cu  0.18585395  0.98787935  0.05925685     0.43900
N483        N  0.22546303  0.95886889  0.50601510    -0.34400
N484        N  0.22549345  0.97343319  0.53540832    -0.28600
C485        C  0.25404797  0.98138632  0.04317704    -0.04700
C486        C  0.27286470  0.97038875  0.51920886     0.07500
C487        C  0.25402220  0.95679791  0.49529040     0.01300
H488        H  0.26084081  0.99553408  0.06545623     0.08900
H489        H  0.26052455  0.94629778  0.47188211     0.08000
N490        N  0.14365722  0.00328332  0.07775031    -0.35800
N491        N  0.11764563  0.99517735  0.06371775    -0.28000
C492        C  0.09520594  0.01434472  0.08051081    -0.03300
C493        C  0.10776987  0.03534139  0.10625796     0.05400
C494        C  0.13843519  0.02796148  0.10366055     0.03500
H495        H  0.07198089  0.01641237  0.07295083     0.08600
H496        H  0.15587668  0.04258968  0.11811708     0.07400
C497        C  0.08187083  0.22413411  0.16924824     0.23900
C498        C  0.09326912  0.19640246  0.14496967    -0.24200
C499        C  0.10549041  0.21774852  0.11811662     0.18800
C500        C  0.10474544  0.26432707  0.11506623     0.23800
C501        C  0.09159651  0.29181105  0.13859762    -0.24200
C502        C  0.08102110  0.27059714  0.16613604     0.18700
F503        F  0.06794436  0.29486395  0.18965164    -0.14100
F504        F  0.06954932  0.20601040  0.19555754    -0.16500
F505        F  0.11565929  0.28096784  0.08781855    -0.16500
F506        F  0.11677452  0.19474324  0.09325668    -0.14100
C507        C  0.06519801  0.73477908  0.32435992     0.23900
C508        C  0.08616977  0.70596733  0.33921355    -0.24200
C509        C  0.11207446  0.72590474  0.35220775     0.18800
C510        C  0.11400829  0.77249810  0.35543710     0.23800
C511        C  0.08987667  0.80062472  0.34629986    -0.24200
C512        C  0.06624136  0.78116311  0.32905446     0.18700
F513        F  0.04317856  0.80621129  0.31777254    -0.14100
F514        F  0.04342018  0.71838149  0.30519881    -0.16500
F515        F  0.13969117  0.78994925  0.36760538    -0.16500
F516        F  0.13592218  0.70062171  0.36139079    -0.14100
C517        C  0.96922512  0.98802625  0.22112787     0.23900
C518        C  0.95109789  0.01048528  0.24336593    -0.24200
C519        C  0.96467538  0.03432419  0.26809360     0.18800
C520        C  0.99574187  0.03316672  0.27176160     0.23800
C521        C  0.01372627  0.00845549  0.25063831    -0.24200
C522        C  0.00034736  0.98712997  0.22468606     0.18700
F523        F  0.01732882  0.96567049  0.20257044    -0.14100
F524        F  0.95691563  0.96691196  0.19593186    -0.16500
F525        F  0.00799298  0.05488015  0.29672758    -0.16500
F526        F  0.94790770  0.05711727  0.28970684    -0.14100
C527        C  0.96553562  0.09264122  0.17700663     0.23900
C528        C  0.95125998  0.07992226  0.14888183    -0.24200
C529        C  0.96884990  0.06178103  0.12431795     0.18800
C530        C  0.00052943  0.06082779  0.12667559     0.23800
C531        C  0.01484927  0.07785741  0.15365047    -0.24200
C532        C  0.99702704  0.09174764  0.17933228     0.18700
F533        F  0.01025992  0.10834536  0.20563640    -0.14100
F534        F  0.94902008  0.10991225  0.20119679    -0.16500
F535        F  0.01725549  0.04771982  0.10142236    -0.16500
F536        F  0.95562694  0.04945938  0.09688948    -0.14100
C537        C  0.96392550  0.88716175  0.38073920     0.23900
C538        C  0.95059953  0.90373727  0.35319997    -0.24200
C539        C  0.96928798  0.92134856  0.32953098     0.18800
C540        C  0.00090573  0.92143611  0.33317041     0.23800
C541        C  0.01422530  0.90381237  0.36054016    -0.24200
C542        C  0.99523413  0.88685492  0.38428378     0.18700
F543        F  0.00702585  0.86777710  0.41044615    -0.14100
F544        F  0.94649220  0.86925989  0.40379218    -0.16500
F545        F  0.01842793  0.93867821  0.31000582    -0.16500
F546        F  0.95702899  0.93636386  0.30234229    -0.14100
C547        C  0.96494298  0.39982829  0.09901488     0.23900
C548        C  0.94641964  0.40885111  0.12547658    -0.24200
C549        C  0.96041825  0.41723595  0.15460570     0.18800
C550        C  0.99207633  0.41571232  0.15726494     0.23800
C551        C  0.01021352  0.40621590  0.13082035    -0.24200
C552        C  0.99635948  0.39880325  0.10170610     0.18700
F553        F  0.01334400  0.38789142  0.07609158    -0.14100
F554        F  0.95271164  0.38914099  0.07074346    -0.16500
F555        F  0.00496701  0.42136645  0.18589852    -0.16500
F556        F  0.94351278  0.42650126  0.18052565    -0.14100
C557        C  0.88918612  0.27200873  0.10601055     0.23900
C558        C  0.87788397  0.29979374  0.13004836    -0.24200
C559        C  0.86771695  0.28024102  0.15801714     0.18800
C560        C  0.86785922  0.23347222  0.16159071     0.23800
C561        C  0.87800811  0.20494913  0.13684119    -0.24200
C562        C  0.88955595  0.22560410  0.10942819     0.18700
F563        F  0.90203982  0.20075530  0.08586725    -0.14100
F564        F  0.90054558  0.28996655  0.07918061    -0.16500
F565        F  0.85939738  0.21730254  0.18993228    -0.16500
F566        F  0.85716472  0.30645932  0.18182742    -0.14100
C567        C  0.96233914  0.56996159  0.36511287     0.23900
C568        C  0.94649916  0.58043082  0.33747666    -0.24200
C569        C  0.96292125  0.58828778  0.30971367     0.18800
C570        C  0.99455285  0.58862053  0.30998605     0.23800
C571        C  0.01046585  0.58121594  0.33804545    -0.24200
C572        C  0.99413071  0.57038729  0.36540387     0.18700
F573        F  0.00883123  0.56464700  0.39304147    -0.14100
F574        F  0.94704049  0.56355883  0.39244585    -0.16500
F575        F  0.00968287  0.60025362  0.28342921    -0.16500
F576        F  0.94823585  0.59953396  0.28290636    -0.14100
C577        C  0.84791077  0.72253186  0.36005374     0.23900
C578        C  0.86657378  0.69876108  0.33857009    -0.24200
C579        C  0.88179511  0.72379955  0.31544092     0.18800
C580        C  0.88221338  0.77030539  0.31667802     0.23800
C581        C  0.86756557  0.79396507  0.34121455    -0.24200
C582        C  0.84850709  0.76943525  0.36143697     0.18700
F583        F  0.82959311  0.78988910  0.38209126    -0.14100
F584        F  0.82815859  0.70154761  0.37925788    -0.16500
F585        F  0.89877963  0.79227409  0.29471016    -0.16500
F586        F  0.89794551  0.70303126  0.29233676    -0.14100
C587        C  0.96300692  0.49632707  0.25869348     0.23900
C588        C  0.94803761  0.50903858  0.23111479    -0.24200
C589        C  0.96449713  0.52514506  0.20529967     0.18800
C590        C  0.99586345  0.52611240  0.20651423     0.23800
C591        C  0.01080938  0.51101597  0.23357503    -0.24200
C592        C  0.99420780  0.49720868  0.25988580     0.18700
F593        F  0.00819584  0.48509063  0.28692576    -0.14100
F594        F  0.94738101  0.48369184  0.28471695    -0.16500
F595        F  0.01157873  0.53953419  0.18075321    -0.16500
F596        F  0.95037152  0.53780247  0.17847017    -0.14100
C597        C  0.61728547  0.21420688  0.07700204     0.23900
C598        C  0.59884498  0.18999338  0.09799086    -0.24200
C599        C  0.58378713  0.21444621  0.12186624     0.18800
C600        C  0.58193139  0.26100273  0.12064695     0.23800
C601        C  0.59569968  0.28486830  0.09594959    -0.24200
C602        C  0.61589083  0.26101219  0.07614093     0.18700
F603        F  0.63567436  0.28216612  0.05702072    -0.14100
F604        F  0.63794700  0.19360570  0.05830554    -0.16500
F605        F  0.56541559  0.28269643  0.14303110    -0.16500
F606        F  0.56916656  0.19299126  0.14551458    -0.14100
C607        C  0.58897624  0.75861126  0.41131812     0.23900
C608        C  0.59211058  0.78374329  0.38343105    -0.24200
C609        C  0.58943095  0.76030601  0.35455824     0.18800
C610        C  0.58598274  0.71380657  0.35373233     0.23800
C611        C  0.58527026  0.68844886  0.38166634    -0.24200
C612        C  0.58526927  0.71222767  0.41044952     0.18700
F613        F  0.57894646  0.69148813  0.43800704    -0.14100
F614        F  0.58641305  0.77918778  0.43973326    -0.16500
F615        F  0.58041816  0.69456577  0.32537906    -0.16500
F616        F  0.58700203  0.78222699  0.32683351    -0.14100
C617        C  0.49996829  0.99468230  0.47045361     0.23900
C618        C  0.51860229  0.98093280  0.49520521    -0.24200
C619        C  0.50538873  0.96303753  0.02234964     0.18800
C620        C  0.47429133  0.96320343  0.02600356     0.23800
C621        C  0.45608015  0.98200898  0.50335186    -0.24200
C622        C  0.46877925  0.99518349  0.47449276     0.18700
F623        F  0.45101199  0.00725372  0.44997365    -0.14100
F624        F  0.51189797  0.00651029  0.44221897    -0.16500
F625        F  0.46228120  0.94871738  0.05356166    -0.16500
F626        F  0.52268198  0.94851356  0.04656944    -0.14100
C627        C  0.49973810  0.06624220  0.07573837     0.23900
C628        C  0.51951330  0.07308355  0.10100363    -0.24200
C629        C  0.50761632  0.07689530  0.13147089     0.18800
C630        C  0.47646703  0.07562780  0.13668204     0.23800
C631        C  0.45614646  0.06943736  0.11143364    -0.24200
C632        C  0.46838219  0.06374654  0.08090476     0.18700
F633        F  0.45014736  0.05621827  0.05592617    -0.14100
F634        F  0.51070290  0.06417639  0.04590163    -0.16500
F635        F  0.46640989  0.08376015  0.16636854    -0.16500
F636        F  0.52620361  0.08508357  0.15612932    -0.14100
C637        C  0.47110501  0.89108288  0.42908304     0.23900
C638        C  0.45220413  0.89782652  0.40304049    -0.24200
C639        C  0.46528591  0.91004655  0.37414513     0.18800
C640        C  0.49684547  0.91255267  0.37081508     0.23800
C641        C  0.51580481  0.90315708  0.39639340    -0.24200
C642        C  0.50258668  0.89389937  0.42581461     0.18700
F643        F  0.52034912  0.88359902  0.45072399    -0.14100
F644        F  0.45916382  0.87848694  0.45712635    -0.16500
F645        F  0.50894941  0.91971333  0.34189457    -0.16500
F646        F  0.44762854  0.91539516  0.34842971    -0.14100
C647        C  0.46655510  0.38839911  0.05833005     0.23900
C648        C  0.44941414  0.39966753  0.08518718    -0.24200
C649        C  0.46445923  0.41565751  0.11202380     0.18800
C650        C  0.49623468  0.41593653  0.11301825     0.23800
C651        C  0.51322899  0.40030976  0.08714602    -0.24200
C652        C  0.49813204  0.38876739  0.05930293     0.18700
F653        F  0.51403618  0.37419622  0.03384144    -0.14100
F654        F  0.45266605  0.37274344  0.03210866    -0.16500
F655        F  0.51028211  0.42728396  0.14019541    -0.16500
F656        F  0.44849550  0.42628090  0.13835903    -0.14100
C657        C  0.39852137  0.20625188  0.12565169     0.23900
C658        C  0.38393772  0.17648431  0.10537545    -0.24200
C659        C  0.36760093  0.19343962  0.07988954     0.18800
C660        C  0.36555536  0.23986001  0.07487026     0.23800
C661        C  0.38031414  0.27038064  0.09530433    -0.24200
C662        C  0.39662229  0.25224751  0.12090236     0.18700
F663        F  0.41120850  0.27938082  0.14150776    -0.14100
F664        F  0.41471654  0.19060376  0.15035577    -0.16500
F665        F  0.34852871  0.25380034  0.05046783    -0.16500
F666        F  0.35266224  0.16504719  0.06047303    -0.14100
C667        C  0.45786454  0.55286952  0.35977127     0.23900
C668        C  0.44264524  0.56428296  0.38779461    -0.24200
C669        C  0.45967972  0.57344887  0.41489082     0.18800
C670        C  0.49121241  0.57557219  0.41326498     0.23800
C671        C  0.50634465  0.56840929  0.38454863    -0.24200
C672        C  0.48957460  0.55497459  0.35813829     0.18700
F673        F  0.50363433  0.54799980  0.33010176    -0.14100
F674        F  0.44194579  0.54433288  0.33322692    -0.16500
F675        F  0.50687913  0.58812947  0.43919633    -0.16500
F676        F  0.44554416  0.58433305  0.44230807    -0.14100
C677        C  0.34839162  0.70883651  0.41327773     0.23900
C678        C  0.36567007  0.68594761  0.39013296    -0.24200
C679        C  0.38176712  0.71225926  0.36836687     0.18800
C680        C  0.38436231  0.75841072  0.37241248     0.23800
C681        C  0.37107116  0.78040586  0.39847231    -0.24200
C682        C  0.35115167  0.75524849  0.41745638     0.18700
F683        F  0.33288961  0.77493191  0.43911577    -0.14100
F684        F  0.32772243  0.68765902  0.43131364    -0.16500
F685        F  0.40091642  0.78157724  0.35108149    -0.16500
F686        F  0.39655691  0.69280793  0.34377654    -0.14100
C687        C  0.49148477  0.49297052  0.51304343     0.23900
C688        C  0.50825213  0.47967126  0.98656190    -0.24200
C689        C  0.49285206  0.46608439  0.95941446     0.18800
C690        C  0.46159870  0.46422764  0.95960987     0.23800
C691        C  0.44555153  0.47597748  0.98695792    -0.24200
C692        C  0.46017269  0.49144089  0.51327575     0.18700
F693        F  0.44508008  0.50057606  0.54045107    -0.14100
F694        F  0.50628770  0.50349329  0.53997289    -0.16500
F695        F  0.44701670  0.45235383  0.93281946    -0.16500
F696        F  0.50802297  0.45591323  0.93245163    -0.14100
O697        O  0.59545307  0.49435982  0.93114660    -0.72700
O698        O  0.60049648  0.41544010  0.50619379    -0.73600
O699        O  0.55545224  0.45136808  0.97104371    -0.62300
O700        O  0.64435957  0.45827683  0.96593233    -0.70700
O701        O  0.64380707  0.51406243  0.49901322    -0.70200
O702        O  0.55390734  0.51394641  0.49990580    -0.61500
O703        O  0.59776710  0.47521903  0.53728731    -0.74000
O704        O  0.59792859  0.55357285  0.96275128    -0.72800
Cu705      Cu  0.59964277  0.45256332  0.96773251     1.04600
Cu706      Cu  0.59858391  0.51639315  0.50056863     1.04300
C707        C  0.59434662  0.53662674  0.93536192     0.93500
C708        C  0.59737499  0.43292030  0.53359826     0.92700
C709        C  0.54009329  0.48295054  0.48522141     0.84800
C710        C  0.65834653  0.48744569  0.98216795     0.91100
O711        O  0.35633726  0.46352301  0.53992793    -0.72700
O712        O  0.35276553  0.54298515  0.96603952    -0.73600
O713        O  0.30753840  0.50082831  0.50378450    -0.62300
O714        O  0.39716692  0.50689791  0.50158541    -0.70700
O715        O  0.39946728  0.44415368  0.97143637    -0.70200
O716        O  0.30961249  0.44401868  0.96876564    -0.61500
O717        O  0.35714121  0.48556671  0.93307189    -0.74000
O718        O  0.35506864  0.40458137  0.50806675    -0.72800
Cu719      Cu  0.35265353  0.50591867  0.50373607     1.04600
Cu720      Cu  0.35504025  0.44177888  0.96925320     1.04300
C721        C  0.35900040  0.42145029  0.53554157     0.93500
C722        C  0.35705955  0.52772590  0.93819632     0.92700
C723        C  0.29385216  0.47338985  0.48577443     0.84800
C724        C  0.41192803  0.47741497  0.48612146     0.91100
C725        C  0.37150164  0.63344341  0.88908607     0.86800
C726        C  0.36084586  0.61170552  0.85822721    -0.53500
C727        C  0.36785264  0.56734388  0.85534870     0.09700
C728        C  0.38465149  0.54798931  0.88392114     0.20700
C729        C  0.35759042  0.60415175  0.91519659    -0.54200
C730        C  0.36416773  0.55952617  0.91250462     0.09800
C731        C  0.40530681  0.62242722  0.89102424    -0.53700
C732        C  0.41246257  0.57834124  0.88809491     0.10400
H733        H  0.34828037  0.62975484  0.84041476     0.14900
H734        H  0.39036185  0.51191596  0.88168115     0.00600
H735        H  0.34541677  0.61657324  0.93547760     0.15200
H736        H  0.42250109  0.64786179  0.89419256     0.15000
C737        C  0.38166050  0.32484238  0.59120275     0.86800
C738        C  0.36862163  0.35026743  0.61994538    -0.53500
C739        C  0.37254393  0.39550956  0.61921577     0.09700
C740        C  0.38880235  0.41190202  0.58938173     0.20700
C741        C  0.36609640  0.34752742  0.56276610    -0.54200
C742        C  0.36957640  0.39306958  0.56196335     0.09800
C743        C  0.41452385  0.34007771  0.58859377    -0.53700
C744        C  0.41862228  0.38501927  0.58785110     0.10400
H745        H  0.35683304  0.33377897  0.63908135     0.14900
H746        H  0.39210913  0.44867433  0.58870138     0.00600
H747        H  0.35358037  0.33059432  0.54457983     0.15200
H748        H  0.43340827  0.31675571  0.58766145     0.15000
N749        N  0.35084754  0.46171325  0.68851635    -0.27000
N750        N  0.32453916  0.45731544  0.67416751    -0.34900
C751        C  0.32873290  0.43522540  0.64681033     0.01300
C752        C  0.35907763  0.42556982  0.64333591     0.07400
C753        C  0.37246032  0.44256427  0.67030197    -0.05700
H754        H  0.31074960  0.42494250  0.63126916     0.08000
H755        H  0.39587045  0.43904281  0.67698643     0.09200
Cu756      Cu  0.28297757  0.47562833  0.69358339     0.44200
Cu757      Cu  0.35517902  0.48869053  0.73423411     0.42000
Cu758      Cu  0.28375996  0.48865713  0.77672594     0.43900
N759        N  0.24384799  0.48463616  0.72026646    -0.34400
N760        N  0.24421396  0.48557024  0.75133379    -0.28600
C761        C  0.21575414  0.48883228  0.76229563    -0.04700
C762        C  0.19659749  0.49098029  0.73682408     0.07500
C763        C  0.21507400  0.48836967  0.71051583     0.01300
H764        H  0.20960875  0.49112073  0.78686522     0.08900
H765        H  0.20809435  0.48831919  0.68619675     0.08000
N766        N  0.32407613  0.50855230  0.79643952    -0.35800
N767        N  0.35018409  0.51048753  0.78126889    -0.28000
C768        C  0.37061986  0.52985016  0.80049100    -0.03300
C769        C  0.35654200  0.53998406  0.82893650     0.05400
C770        C  0.32710675  0.52640516  0.82530209     0.03500
H771        H  0.39356443  0.53771088  0.79381933     0.08600
H772        H  0.30879058  0.53123068  0.84187077     0.07400
C773        C  0.37846710  0.82896175  0.90213285     0.86800
C774        C  0.41265242  0.83846572  0.90169367    -0.53500
C775        C  0.42007901  0.88264850  0.90321994     0.09700
C776        C  0.39240066  0.91400259  0.90557428     0.20700
C777        C  0.36767473  0.85228077  0.93271948    -0.54200
C778        C  0.37423518  0.89686399  0.93404971     0.09800
C779        C  0.36525612  0.85764477  0.87568301    -0.53700
C780        C  0.37250634  0.90180833  0.87750846     0.10400
H781        H  0.42967812  0.81229311  0.90009239     0.14900
H782        H  0.39827644  0.95003402  0.90694708     0.00600
H783        H  0.35699244  0.83593363  0.95241865     0.15200
H784        H  0.35043321  0.84435338  0.85765277     0.15000
C785        C  0.37574393  0.06795946  0.64853889     0.86800
C786        C  0.36239412  0.04415871  0.62004157    -0.53500
C787        C  0.37422059  0.05731892  0.59197314     0.09700
C788        C  0.39878353  0.09382364  0.59513934     0.20700
C789        C  0.40977962  0.05927808  0.64573156    -0.54200
C790        C  0.42247685  0.07339572  0.61799725     0.09800
C791        C  0.37169511  0.11780505  0.64222969    -0.53700
C792        C  0.38372915  0.13171115  0.61446042     0.10400
H793        H  0.34603242  0.01733986  0.62202909     0.14900
H794        H  0.40810578  0.10563068  0.57243449     0.00600
H795        H  0.42248301  0.04244016  0.66388943     0.15200
H796        H  0.36073460  0.14054864  0.65875480     0.15000
N797        N  0.34941303  0.97875903  0.81660069    -0.27000
N798        N  0.32293630  0.96755480  0.82870974    -0.34900
C799        C  0.32747261  0.94071783  0.85345056     0.01300
C800        C  0.35812537  0.93515409  0.85730492     0.07400
C801        C  0.37147629  0.95975989  0.83371151    -0.05700
H802        H  0.30973569  0.92424462  0.86647489     0.08000
H803        H  0.39521636  0.96060710  0.82773151     0.09200
Cu804      Cu  0.28119309  0.98236980  0.80945419     0.44200
Cu805      Cu  0.35467397  0.01068041  0.77374343     0.42000
Cu806      Cu  0.28405320  0.03248394  0.73447812     0.43900
N807        N  0.24279835  0.99589108  0.78346539    -0.34400
N808        N  0.24426744  0.01404681  0.75526620    -0.28600
C809        C  0.21637875  0.01793806  0.74339819    -0.04700
C810        C  0.19641994  0.00154829  0.76532349     0.07500
C811        C  0.21368674  0.98804950  0.79059114     0.01300
H812        H  0.21107931  0.03228344  0.72080438     0.08900
H813        H  0.20576189  0.97375514  0.81236931     0.08000
N814        N  0.32552223  0.04220766  0.71425723    -0.35800
N815        N  0.35160248  0.03346567  0.72786305    -0.28000
C816        C  0.37395522  0.04051434  0.70693279    -0.03300
C817        C  0.36105389  0.05450112  0.67893811     0.05400
C818        C  0.33040935  0.05546198  0.68466067     0.03500
H819        H  0.39765176  0.03598386  0.71193755     0.08600
H820        H  0.31283176  0.06443777  0.66823383     0.07400
O821        O  0.60678315  0.97441298  0.93686258    -0.72700
O822        O  0.60784049  0.05698360  0.51197428    -0.73600
O823        O  0.65416329  0.01644362  0.97258940    -0.62300
O824        O  0.56384070  0.01253142  0.97648242    -0.70700
O825        O  0.56691882  0.95146366  0.00584846    -0.70200
O826        O  0.65626281  0.96103120  0.00709714    -0.61500
O827        O  0.60740693  0.99844663  0.54386449    -0.74000
O828        O  0.61233916  0.91538869  0.96779027    -0.72800
Cu829      Cu  0.60858617  0.01677067  0.97336119     1.04600
Cu830      Cu  0.61124508  0.95404483  0.00717720     1.04300
C831        C  0.60683247  0.93214829  0.94071587     0.93500
C832        C  0.60506733  0.04056440  0.53955025     0.92700
C833        C  0.66941621  0.99017270  0.99010889     0.84800
C834        C  0.55129017  0.98106666  0.99185372     0.91100
O835        O  0.36592621  0.90705221  0.98873353    -0.72700
O836        O  0.36843870  0.98798000  0.56616977    -0.73600
O837        O  0.32148389  0.94308157  0.03072917    -0.62300
O838        O  0.41092089  0.94928964  0.02269378    -0.70700
O839        O  0.40735978  0.00981599  0.99282736    -0.70200
O840        O  0.31771781  0.00305246  0.00031242    -0.61500
O841        O  0.36544580  0.04877367  0.53653545    -0.74000
O842        O  0.36338507  0.96717153  0.95835468    -0.72800
Cu843      Cu  0.36654088  0.94414361  0.02781039     1.04600
Cu844      Cu  0.36291055  0.00884161  0.99574533     1.04300
C845        C  0.36688002  0.92498169  0.96157917     0.93500
C846        C  0.36884227  0.03045625  0.56340847     0.92700
C847        C  0.30546653  0.97209851  0.01652662     0.84800
C848        C  0.42317065  0.97972444  0.00608490     0.91100
C849        C  0.58832054  0.83404944  0.88470223     0.86800
C850        C  0.59859593  0.86118607  0.85584436    -0.53500
C851        C  0.59163528  0.90567205  0.85752538     0.09700
C852        C  0.57555578  0.91954222  0.88828234     0.20700
C853        C  0.60387584  0.85843741  0.91237648    -0.54200
C854        C  0.59721462  0.90307586  0.91432354     0.09800
C855        C  0.55472534  0.84460072  0.88867253    -0.53700
C856        C  0.54773769  0.88872587  0.89078079     0.10400
H857        H  0.61239107  0.84769862  0.83688583     0.14900
H858        H  0.56989350  0.95570578  0.88976816     0.00600
H859        H  0.61887006  0.84216215  0.92890951     0.15200
H860        H  0.53759550  0.81876373  0.89019315     0.15000
C861        C  0.59251888  0.14096867  0.59528594     0.86800
C862        C  0.60496382  0.11480480  0.62349082    -0.53500
C863        C  0.59765811  0.07051799  0.62341686     0.09700
C864        C  0.57868092  0.05581727  0.59510775     0.20700
C865        C  0.60415865  0.11510428  0.56607567    -0.54200
C866        C  0.59747286  0.07051256  0.56625071     0.09800
C867        C  0.55846869  0.13143114  0.59517296    -0.53700
C868        C  0.55105677  0.08741767  0.59553095     0.10400
H869        H  0.61852950  0.12999607  0.64185100     0.14900
H870        H  0.57267950  0.01979453  0.59525527     0.00600
H871        H  0.61539199  0.12985488  0.54608206     0.15200
H872        H  0.54136925  0.15758207  0.59611596     0.15000
N873        N  0.61230373  0.96836636  0.78778365    -0.27000
N874        N  0.63822695  0.96758381  0.80307632    -0.34900
C875        C  0.63389366  0.94884158  0.83141307     0.01300
C876        C  0.60380609  0.93759906  0.83441138     0.07400
C877        C  0.59080520  0.95003526  0.80616877    -0.05700
H878        H  0.65183146  0.94035002  0.84754068     0.08000
H879        H  0.56804487  0.94291633  0.79857973     0.09200
Cu880      Cu  0.67965887  0.98263559  0.78272488     0.44200
Cu881      Cu  0.60905160  0.98781118  0.74076561     0.42000
Cu882      Cu  0.68092521  0.98321325  0.69847957     0.43900
N883        N  0.71922081  0.98450360  0.75637143    -0.34400
N884        N  0.71972360  0.98060980  0.72539070    -0.28600
C885        C  0.74858101  0.98020298  0.71534974    -0.04700
C886        C  0.76700909  0.98489722  0.74129021     0.07500
C887        C  0.74772206  0.98774470  0.76687987     0.01300
H888        H  0.75552548  0.97874599  0.69097075     0.08900
H889        H  0.75392704  0.99143298  0.79129295     0.08000
N890        N  0.64074744  0.00450058  0.67868271    -0.35800
N891        N  0.61469493  0.00718728  0.69394401    -0.28000
C892        C  0.59456011  0.02849356  0.67559236    -0.03300
C893        C  0.60867033  0.03951878  0.64759718     0.05400
C894        C  0.63790485  0.02413390  0.65046291     0.03500
H895        H  0.57201289  0.03794552  0.68294831     0.08600
H896        H  0.65630987  0.02959762  0.63417852     0.07400
C897        C  0.58122586  0.63712039  0.88115664     0.86800
C898        C  0.54727497  0.62723467  0.88145873    -0.53500
C899        C  0.54016199  0.58289328  0.88117040     0.09700
C900        C  0.56799405  0.55173473  0.88031719     0.20700
C901        C  0.59406732  0.61064345  0.90912984    -0.54200
C902        C  0.58694389  0.56630140  0.90891464     0.09800
C903        C  0.59397881  0.61146841  0.85252885    -0.53700
C904        C  0.58686539  0.56714100  0.85192098     0.10400
H905        H  0.53017806  0.65334515  0.88274544     0.14900
H906        H  0.56228408  0.51560686  0.88002363     0.00600
H907        H  0.60808320  0.62507881  0.92735692     0.15200
H908        H  0.60905658  0.62601787  0.83523513     0.15000
C909        C  0.58769851  0.33609049  0.59210728     0.86800
C910        C  0.55346786  0.34539823  0.59260853    -0.53500
C911        C  0.54567666  0.38956643  0.59160884     0.09700
C912        C  0.57308226  0.42103282  0.59002971     0.20700
C913        C  0.59827689  0.35999302  0.56185765    -0.54200
C914        C  0.59122359  0.40444005  0.56110704     0.09800
C915        C  0.60051720  0.36409276  0.61916463    -0.53700
C916        C  0.59285908  0.40822347  0.61816891     0.10400
H917        H  0.53666413  0.31904251  0.59268200     0.14900
H918        H  0.56684794  0.45702401  0.58924326     0.00600
H919        H  0.60866130  0.34385766  0.54173901     0.15200
H920        H  0.61486113  0.35024242  0.63738222     0.15000
N921        N  0.61236536  0.47329828  0.68694222    -0.27000
N922        N  0.63895999  0.46951333  0.67294332    -0.34900
C923        C  0.63541151  0.44926672  0.64495735     0.01300
C924        C  0.60513345  0.44047597  0.64083946     0.07400
C925        C  0.59112578  0.45589167  0.66795534    -0.05700
H926        H  0.65378015  0.43833056  0.62992168     0.08000
H927        H  0.56781235  0.45088802  0.67466150     0.09200
Cu928      Cu  0.67973521  0.48350226  0.69430863     0.44200
Cu929      Cu  0.60749722  0.49323127  0.73356989     0.42000
Cu930      Cu  0.67882115  0.49625410  0.77767567     0.43900
N931        N  0.71875465  0.48832482  0.72062069    -0.34400
N932        N  0.71876881  0.49018581  0.75168576    -0.28600
C933        C  0.74761032  0.49042943  0.76173576    -0.04700
C934        C  0.76640694  0.48925089  0.73559193     0.07500
C935        C  0.74737808  0.48828538  0.70998169     0.01300
H936        H  0.75435671  0.49292173  0.78607961     0.08900
H937        H  0.75382844  0.48720324  0.68547241     0.08000
N938        N  0.63629866  0.51031510  0.79685643    -0.35800
N939        N  0.61065050  0.50958750  0.78100349    -0.28000
C940        C  0.58832965  0.52566797  0.79952981    -0.03300
C941        C  0.60039970  0.53676485  0.82842665     0.05400
C942        C  0.63084818  0.52706015  0.82575500     0.03500
H943        H  0.56556628  0.53235085  0.79166168     0.08600
H944        H  0.64817566  0.53508714  0.84269682     0.07400
O945        O  0.10035864  0.51297243  0.79028086    -0.72700
O946        O  0.10291530  0.43084207  0.71561935    -0.73600
O947        O  0.14811130  0.46960450  0.75525741    -0.62300
O948        O  0.05832226  0.47540467  0.75048815    -0.70700
O949        O  0.06115694  0.53571884  0.72031012    -0.70200
O950        O  0.15069261  0.52411368  0.72008191    -0.61500
O951        O  0.10205415  0.48847888  0.68295214    -0.74000
O952        O  0.10589456  0.57131021  0.75876875    -0.72800
Cu953      Cu  0.10271181  0.47018760  0.75400472     1.04600
Cu954      Cu  0.10554214  0.53205669  0.71943577     1.04300
C955        C  0.10020438  0.55514863  0.78606415     0.93500
C956        C  0.10006838  0.44643531  0.68783945     0.92700
C957        C  0.16360516  0.49520326  0.73752196     0.84800
C958        C  0.04569111  0.50691358  0.73520071     0.91100
O959        O  0.85721309  0.56655659  0.75587909    -0.72700
O960        O  0.85886798  0.48859219  0.67929386    -0.73600
O961        O  0.81197733  0.52273812  0.71867991    -0.62300
O962        O  0.90180060  0.53233961  0.71621255    -0.70700
O963        O  0.90517124  0.47131712  0.74564042    -0.70200
O964        O  0.81545601  0.46309597  0.74938851    -0.61500
O965        O  0.86294716  0.42728608  0.70819931    -0.74000
O966        O  0.86194931  0.50608688  0.78559434    -0.72800
Cu967      Cu  0.85700039  0.52953373  0.71643565     1.04600
Cu968      Cu  0.86109530  0.46468785  0.74822891     1.04300
C969        C  0.86207363  0.54857922  0.78258807     0.93500
C970        C  0.86305745  0.44639312  0.68136696     0.92700
C971        C  0.79949447  0.49181340  0.73465238     0.84800
C972        C  0.91749641  0.50375547  0.73120942     0.91100
C973        C  0.87323516  0.64422000  0.84237423     0.86800
C974        C  0.90731304  0.63468039  0.84405694    -0.53500
C975        C  0.91522769  0.59082865  0.84155248     0.09700
C976        C  0.88797411  0.55933161  0.83817309     0.20700
C977        C  0.86273304  0.62127715  0.81181117    -0.54200
C978        C  0.86999090  0.57691864  0.80979371     0.09800
C979        C  0.85950822  0.61469073  0.86849595    -0.53700
C980        C  0.86730058  0.57053767  0.86606744     0.10400
H981        H  0.92408369  0.66093119  0.84617240     0.14900
H982        H  0.89427418  0.52341317  0.83638262     0.00600
H983        H  0.85030755  0.63861419  0.79355341     0.15200
H984        H  0.84366781  0.62533803  0.88635398     0.15000
C985        C  0.86837294  0.41211432  0.59516688     0.86800
C986        C  0.85658880  0.43590112  0.62453778    -0.53500
C987        C  0.86873734  0.42105558  0.65193138     0.09700
C988        C  0.89243726  0.38302446  0.64714635     0.20700
C989        C  0.90261921  0.41806278  0.59647751    -0.54200
C990        C  0.91569767  0.40250960  0.62339191     0.09800
C991        C  0.86305680  0.36248666  0.60092034    -0.53700
C992        C  0.87591412  0.34661254  0.62776103     0.10400
H993        H  0.84062612  0.46355025  0.62363722     0.14900
H994        H  0.90270135  0.37037959  0.66916655     0.00600
H995        H  0.91553780  0.43359152  0.57779669     0.15200
H996        H  0.85142684  0.34106312  0.58423003     0.15000
N997        N  0.84245329  0.49010908  0.92389365    -0.27000
N998        N  0.81637046  0.50193552  0.91135890    -0.34900
C999        C  0.82156252  0.53024993  0.88758137     0.01300
C1000       C  0.85231518  0.53611376  0.88485181     0.07400
C1001       C  0.86498836  0.51015952  0.90807804    -0.05700
H1002       H  0.80416611  0.54787866  0.87479339     0.08000
H1003       H  0.88845237  0.50946974  0.91497726     0.09200
Cu1004     Cu  0.77464792  0.48843995  0.93096534     0.44200
Cu1005     Cu  0.84571807  0.45865396  0.96691070     0.42000
Cu1006     Cu  0.77803934  0.47145193  0.51502172     0.43900
N1007       N  0.73714061  0.48893584  0.95996138    -0.34400
N1008       N  0.73844910  0.48324368  0.49190068    -0.28600
C1009       C  0.71038232  0.48304400  0.50390720    -0.03100
C1010       C  0.69054223  0.48742586  0.47927886     0.07500
C1011       C  0.70789151  0.48610046  0.95214330     0.01300
H1012       H  0.70489585  0.47819409  0.52842702     0.08900
H1013       H  0.69957995  0.48179553  0.92848764     0.08000
N1014       N  0.81868359  0.45116770  0.53272738    -0.35800
N1015       N  0.84458822  0.45153731  0.51724468    -0.28000
C1016       C  0.86660627  0.43784171  0.53665176    -0.03300
C1017       C  0.85366892  0.42824441  0.56559981     0.05400
C1018       C  0.82325915  0.43643440  0.56199040     0.03500
H1019       H  0.89009959  0.43486539  0.52997101     0.08600
H1020       H  0.80575325  0.43288014  0.57959673     0.07400
C1021       C  0.87522353  0.84069337  0.84652623     0.86800
C1022       C  0.86405864  0.86839681  0.87519744    -0.53500
C1023       C  0.87307964  0.91202721  0.87489443     0.09700
C1024       C  0.89220634  0.92467327  0.84607005     0.20700
C1025       C  0.86399324  0.86711273  0.81793720    -0.54200
C1026       C  0.87245561  0.91092918  0.81763135     0.09800
C1027       C  0.90950174  0.84752557  0.84684773    -0.53700
C1028       C  0.91864249  0.89083599  0.84651949     0.10400
H1029       H  0.85034774  0.85641356  0.89438348     0.14900
H1030       H  0.89947789  0.96016913  0.84595740     0.00600
H1031       H  0.85050244  0.85220534  0.79940206     0.15200
H1032       H  0.92547031  0.81993884  0.84852653     0.15000
C1033       C  0.88096784  0.15156347  0.64192677     0.86800
C1034       C  0.87037789  0.12679074  0.61204381    -0.53500
C1035       C  0.87651072  0.08201080  0.61162350     0.09700
C1036       C  0.89226232  0.06531411  0.64160381     0.20700
C1037       C  0.86517174  0.12569756  0.66885994    -0.54200
C1038       C  0.87100058  0.08061301  0.66858558     0.09800
C1039       C  0.91434209  0.13929213  0.64534920    -0.53700
C1040       C  0.92055120  0.09475405  0.64546171     0.10400
H1041       H  0.85807200  0.14311861  0.59324162     0.14900
H1042       H  0.89731374  0.02890654  0.64145300     0.00600
H1043       H  0.85060549  0.14026912  0.68659196     0.15200
H1044       H  0.93189458  0.16429039  0.64808486     0.15000
N1045       N  0.85654202  0.01992359  0.54044840    -0.27000
N1046       N  0.83014912  0.02222795  0.55515976    -0.34900
C1047       C  0.83394146  0.04193499  0.58338050     0.01300
C1048       C  0.86408093  0.05222272  0.58702143     0.07400
C1049       C  0.87777925  0.03815414  0.55925217    -0.05700
H1050       H  0.81575029  0.05071879  0.59930426     0.08000
H1051       H  0.90103843  0.04335088  0.55244560     0.09200
Cu1052     Cu  0.78862618  0.00578154  0.53534844     0.44200
Cu1053     Cu  0.86145627  0.99384217  0.99396985     0.42000
Cu1054     Cu  0.79022233  0.99634046  0.95182870     0.43900
N1055       N  0.74950994  0.99695498  0.00799086    -0.34400
N1056       N  0.75026517  0.99837144  0.97695463    -0.28600
C1057       C  0.72192279  0.99696073  0.96579006    -0.04700
C1058       C  0.70241390  0.99368519  0.99107513     0.07500
C1059       C  0.72055141  0.99660206  0.51793378     0.01300
H1060       H  0.71607466  0.99668136  0.94114217     0.08900
H1061       H  0.71327238  0.99396099  0.54213115     0.08000
N1062       N  0.83076829  0.97723454  0.93164456    -0.35800
N1063       N  0.85677779  0.97442454  0.94668788    -0.28000
C1064       C  0.87704409  0.95400015  0.92754828    -0.03300
C1065       C  0.86300950  0.94406436  0.89924300     0.05400
C1066       C  0.83372935  0.95885587  0.90292642     0.03500
H1067       H  0.89955893  0.94411551  0.93450541     0.08600
H1068       H  0.81522430  0.95326346  0.88688117     0.07400
O1069       O  0.10495619  0.07215729  0.73633063    -0.72700
O1070       O  0.10167506  0.99457425  0.81277782    -0.73600
O1071       O  0.14887040  0.03275506  0.77730504    -0.62300
O1072       O  0.05932425  0.03368987  0.77197244    -0.70700
O1073       O  0.06080930  0.97251633  0.74219317    -0.70200
O1074       O  0.15032236  0.97214672  0.74681766    -0.61500
O1075       O  0.10236937  0.93328451  0.78304286    -0.74000
O1076       O  0.10531772  0.01115887  0.70629038    -0.72800
Cu1077     Cu  0.10393186  0.03535892  0.77569700     1.04600
Cu1078     Cu  0.10514932  0.97008856  0.74354293     1.04300
C1079       C  0.10287994  0.05356735  0.70932214     0.93500
C1080       C  0.10016755  0.95209256  0.80999603     0.92700
C1081       C  0.16366693  0.00204902  0.76308992     0.84800
C1082       C  0.04601715  0.00387297  0.75563372     0.91100
O1083       O  0.90158102  0.03097405  0.75866941    -0.72700
O1084       O  0.81239568  0.01732851  0.75958228    -0.73600
O1085       O  0.86184655  0.98307987  0.79615884    -0.62300
O1086       O  0.85563475  0.06580808  0.72161748    -0.70700
O1087       O  0.86281003  0.00796952  0.68949535    -0.70200
O1088       O  0.86200227  0.92493604  0.76352281    -0.61500
O1089       O  0.81596432  0.96304963  0.72390955    -0.74000
O1090       O  0.90579870  0.97040862  0.72856149    -0.72800
Cu1091     Cu  0.85728577  0.02631035  0.76010844     1.04600
Cu1092     Cu  0.86137584  0.96448068  0.72521800     1.04300
C1093       C  0.91777983  0.00235570  0.74401306     0.93500
C1094       C  0.79999294  0.98856350  0.74157004     0.92700
C1095       C  0.86465325  0.94107223  0.79130876     0.84800
C1096       C  0.86173675  0.05013209  0.69422299     0.91100
C1097       C  0.08142047  0.65474205  0.84086451     0.86800
C1098       C  0.09487699  0.63061266  0.86978561    -0.53500
C1099       C  0.09030294  0.58536562  0.86998125     0.09700
C1100       C  0.07251541  0.56811383  0.84134270     0.20700
C1101       C  0.09487702  0.63012798  0.81222642    -0.54200
C1102       C  0.09077615  0.58486722  0.81248553     0.09800
C1103       C  0.04803722  0.64087998  0.84199681    -0.53700
C1104       C  0.04310748  0.59609371  0.84147221     0.10400
H1105       H  0.10659404  0.64751949  0.88874500     0.14900
H1106       H  0.06854524  0.53147670  0.84147609     0.00600
H1107       H  0.10643461  0.64726277  0.79323387     0.15200
H1108       H  0.02932149  0.66423675  0.84390693     0.15000
C1109       C  0.08909223  0.34255727  0.63561011     0.86800
C1110       C  0.09950657  0.36787873  0.60576025    -0.53500
C1111       C  0.09018207  0.41151647  0.60460129     0.09700
C1112       C  0.07198080  0.42671934  0.63371623     0.20700
C1113       C  0.10142409  0.37132703  0.66264301    -0.54200
C1114       C  0.09274916  0.41519553  0.66185156     0.09800
C1115       C  0.05487401  0.34975346  0.63658879    -0.53700
C1116       C  0.04567694  0.39307948  0.63574366     0.10400
H1117       H  0.11439934  0.35493259  0.58772893     0.14900
H1118       H  0.06458599  0.46222802  0.63295388     0.00600
H1119       H  0.11548779  0.35784804  0.68122155     0.15200
H1120       H  0.03890456  0.32224614  0.63688876     0.15000
N1121       N  0.10947439  0.52051051  0.94013765    -0.27000
N1122       N  0.13572875  0.52082190  0.92507176    -0.34900
C1123       C  0.13245867  0.54242228  0.89755364     0.01300
C1124       C  0.10276992  0.55601638  0.89477594     0.07400
C1125       C  0.08882193  0.54178028  0.92222413    -0.05700
H1126       H  0.15065267  0.54918682  0.88125331     0.08000
H1127       H  0.06571707  0.54814955  0.92925311     0.09200
Cu1128     Cu  0.17626887  0.49652255  0.94313920     0.44200
Cu1129     Cu  0.10230998  0.49354938  0.48486638     0.42000
Cu1130     Cu  0.17377817  0.48608211  0.52459940     0.43900
N1131       N  0.21486961  0.48150271  0.96889561    -0.34400
N1132       N  0.21321277  0.48293193  0.49888741    -0.28600
C1133       C  0.24142111  0.47862232  0.50993520    -0.04700
C1134       C  0.26079219  0.47453412  0.48459883     0.07500
C1135       C  0.24365760  0.47717473  0.95893994     0.01300
H1136       H  0.24734085  0.47841205  0.53456405     0.08900
H1137       H  0.25093847  0.47981757  0.93473834     0.08000
N1138       N  0.13331119  0.47166720  0.54617296    -0.35800
N1139       N  0.10678967  0.47210605  0.53202886    -0.28000
C1140       C  0.08627649  0.45383137  0.55181656    -0.03300
C1141       C  0.10080576  0.44190594  0.57954628     0.05400
C1142       C  0.13052860  0.45339610  0.57480188     0.03500
H1143       H  0.06308404  0.44685860  0.54571568     0.08600
H1144       H  0.14928614  0.44574449  0.59009902     0.07400
C1145       C  0.09471568  0.90948435  0.89418220     0.86800
C1146       C  0.10659148  0.93698174  0.86665332    -0.53500
C1147       C  0.09468329  0.92526591  0.83835460     0.09700
C1148       C  0.07164554  0.88671656  0.84016835     0.20700
C1149       C  0.06035650  0.91512813  0.89280827    -0.54200
C1150       C  0.04786261  0.90286162  0.86468224     0.09800
C1151       C  0.10041384  0.86065465  0.88509938    -0.53700
C1152       C  0.08863271  0.84800224  0.85674043     0.10400
H1153       H  0.12241725  0.96435421  0.86944990     0.14900
H1154       H  0.06210811  0.87799500  0.81691749     0.00600
H1155       H  0.04693305  0.92786572  0.91227102     0.15200
H1156       H  0.11162150  0.83760418  0.90090218     0.15000
C1157       C  0.08976108  0.14619511  0.64797933     0.86800
C1158       C  0.05561862  0.13720681  0.64891206    -0.53500
C1159       C  0.04788264  0.09350021  0.65260381     0.09700
C1160       C  0.07521922  0.06180356  0.65479061     0.20700
C1161       C  0.10196840  0.12480960  0.67840886    -0.54200
C1162       C  0.09468628  0.08064300  0.68174018     0.09800
C1163       C  0.10209641  0.11479508  0.62193536    -0.53700
C1164       C  0.09415097  0.07114683  0.62546434     0.10400
H1165       H  0.03878829  0.16358091  0.64697235     0.14900
H1166       H  0.06898055  0.02609862  0.65761243     0.00600
H1167       H  0.11530005  0.14286864  0.69562259     0.15200
H1168       H  0.11838598  0.12361594  0.60411826     0.15000
N1169       N  0.11844300  0.94296808  0.97386818    -0.27000
N1170       N  0.14468790  0.93341755  0.96052951    -0.34900
C1171       C  0.14002155  0.92012357  0.93077808     0.01300
C1172       C  0.10938723  0.92164004  0.92489352     0.07400
C1173       C  0.09632649  0.93621353  0.95283696    -0.05700
H1174       H  0.15769118  0.91065725  0.91439099     0.08000
H1175       H  0.07265085  0.94184702  0.95771554     0.09200
Cu1176     Cu  0.18599600  0.94146944  0.98202149     0.44200
Cu1177     Cu  0.11416313  0.96644585  0.01953080     0.42000
Cu1178     Cu  0.18600237  0.98608808  0.56029966     0.43900
N1179       N  0.22511131  0.95717393  0.00575206    -0.34400
N1180       N  0.22528996  0.97385982  0.03458030    -0.28600
C1181       C  0.25418818  0.98051786  0.54440628    -0.04700
C1182       C  0.27258705  0.96918483  0.01830780     0.07500
C1183       C  0.25361232  0.95398788  0.99500583     0.01300
H1184       H  0.26083524  0.99314130  0.56717919     0.08900
H1185       H  0.25997314  0.94178231  0.97196194     0.08000
N1186       N  0.14384236  0.00249639  0.57839174    -0.35800
N1187       N  0.11790273  0.99509843  0.56403260    -0.28000
C1188       C  0.09552172  0.01505812  0.58043386    -0.03300
C1189       C  0.10806054  0.03585729  0.60625520     0.05400
C1190       C  0.13864371  0.02752306  0.60413928     0.03500
H1191       H  0.07242427  0.01776648  0.57255150     0.08600
H1192       H  0.15609496  0.04172951  0.61878796     0.07400
C1193       C  0.08637197  0.22479759  0.67028528     0.23900
C1194       C  0.09574002  0.19679523  0.64526096    -0.24200
C1195       C  0.10645174  0.21783857  0.61756780     0.18800
C1196       C  0.10671646  0.26448499  0.61479279     0.23800
C1197       C  0.09588201  0.29230840  0.63934200    -0.24200
C1198       C  0.08650577  0.27130529  0.66744406     0.18700
F1199       F  0.07506795  0.29586108  0.69171938    -0.14100
F1200       F  0.07486451  0.20706140  0.69711352    -0.16500
F1201       F  0.11556327  0.28099937  0.58669268    -0.16500
F1202       F  0.11444639  0.19451585  0.59149088    -0.14100
C1203       C  0.06440944  0.73424120  0.82533348     0.23900
C1204       C  0.08605456  0.70568967  0.83938300    -0.24200
C1205       C  0.11245530  0.72579716  0.85108871     0.18800
C1206       C  0.11435290  0.77237739  0.85417831     0.23800
C1207       C  0.08979736  0.80018281  0.84596985    -0.24200
C1208       C  0.06554480  0.78060866  0.82980595     0.18700
F1209       F  0.04200044  0.80556548  0.81949565    -0.14100
F1210       F  0.04204045  0.71771337  0.80699300    -0.16500
F1211       F  0.14029783  0.79018527  0.86545899    -0.16500
F1212       F  0.13666438  0.70061700  0.85937427    -0.14100
C1213       C  0.96873589  0.98603339  0.72221315     0.23900
C1214       C  0.95058243  0.00565971  0.74568620    -0.24200
C1215       C  0.96407095  0.02695125  0.77158126     0.18800
C1216       C  0.99523619  0.02695195  0.77463050     0.23800
C1217       C  0.01333168  0.00578693  0.75180300    -0.24200
C1218       C  0.99991769  0.98619067  0.72520992     0.18700
F1219       F  0.01694558  0.96754935  0.70190833    -0.14100
F1220       F  0.95637978  0.96691087  0.69626868    -0.16500
F1221       F  0.00754966  0.04602363  0.80060461    -0.16500
F1222       F  0.94712895  0.04593892  0.79480036    -0.14100
C1223       C  0.96661413  0.09334052  0.67881794     0.23900
C1224       C  0.95199776  0.07925631  0.65117411    -0.24200
C1225       C  0.96943465  0.06103659  0.62652349     0.18800
C1226       C  0.00115581  0.06136230  0.62821599     0.23800
C1227       C  0.01567990  0.07998537  0.65452829    -0.24200
C1228       C  0.99815490  0.09396531  0.68039989     0.18700
F1229       F  0.01161850  0.11163980  0.70623025    -0.14100
F1230       F  0.95027705  0.11042626  0.70320707    -0.16500
F1231       F  0.01763456  0.04769758  0.60293361    -0.16500
F1232       F  0.95592291  0.04737556  0.59957077    -0.14100
C1233       C  0.96402248  0.88756308  0.88039789     0.23900
C1234       C  0.95091486  0.90132269  0.85203323    -0.24200
C1235       C  0.96970268  0.91672393  0.82770574     0.18800
C1236       C  0.00125333  0.91772680  0.83164915     0.23800
C1237       C  0.01442444  0.90288281  0.85990972    -0.24200
C1238       C  0.99528111  0.88784019  0.88420703     0.18700
F1239       F  0.00683044  0.87094706  0.91121291    -0.14100
F1240       F  0.94643675  0.87164757  0.90404979    -0.16500
F1241       F  0.01883925  0.93302695  0.80786274    -0.16500
F1242       F  0.95762020  0.92861142  0.79968081    -0.14100
C1243       C  0.96784070  0.39064765  0.60118802     0.23900
C1244       C  0.94928635  0.40228191  0.62707852    -0.24200
C1245       C  0.96319581  0.41443893  0.65560278     0.18800
C1246       C  0.99490129  0.41466604  0.65810331     0.23800
C1247       C  0.01310119  0.40324221  0.63206589    -0.24200
C1248       C  0.99923714  0.39155555  0.60363201     0.18700
F1249       F  0.01628588  0.37851284  0.57854994    -0.14100
F1250       F  0.95564385  0.37603680  0.57376847    -0.16500
F1251       F  0.00781534  0.42394781  0.68625589    -0.16500
F1252       F  0.94618166  0.42592419  0.68101429    -0.14100
C1253       C  0.89027610  0.27011392  0.60960784     0.23900
C1254       C  0.87799633  0.29766179  0.63322541    -0.24200
C1255       C  0.86646627  0.27791679  0.66054914     0.18800
C1256       C  0.86644867  0.23109001  0.66392067     0.23800
C1257       C  0.87789734  0.20284701  0.63961788    -0.24200
C1258       C  0.89046692  0.22374615  0.61280037     0.18700
F1259       F  0.90379348  0.19912713  0.58961745    -0.14100
F1260       F  0.90264454  0.28829907  0.58334219    -0.16500
F1261       F  0.85637866  0.21460323  0.69159437    -0.16500
F1262       F  0.85476329  0.30398536  0.68385657    -0.14100
C1263       C  0.96378221  0.56707625  0.86709467     0.23900
C1264       C  0.94761795  0.57771609  0.83969488    -0.24200
C1265       C  0.96369894  0.58616625  0.81182430     0.18800
C1266       C  0.99531306  0.58690715  0.81175701     0.23800
C1267       C  0.01156974  0.57931948  0.83957798    -0.24200
C1268       C  0.99557803  0.56791908  0.86705207     0.18700
F1269       F  0.01057505  0.56207268  0.89450388    -0.14100
F1270       F  0.94877446  0.56003698  0.89452590    -0.16500
F1271       F  0.01007689  0.59929900  0.78515297    -0.16500
F1272       F  0.94867792  0.59770460  0.78528288    -0.14100
C1273       C  0.85157617  0.71897146  0.86595758     0.23900
C1274       C  0.86745310  0.69498857  0.84227129    -0.24200
C1275       C  0.88089697  0.71999171  0.81792111     0.18800
C1276       C  0.88105970  0.76652945  0.81871151     0.23800
C1277       C  0.86816978  0.79050701  0.84412249    -0.24200
C1278       C  0.85182066  0.76587137  0.86677108     0.18700
F1279       F  0.83595528  0.78596796  0.89016016    -0.14100
F1280       F  0.83612849  0.69829212  0.88915351    -0.16500
F1281       F  0.89586819  0.78826711  0.79531427    -0.16500
F1282       F  0.89576966  0.69918096  0.79392731    -0.14100
C1283       C  0.96523276  0.49484652  0.76002531     0.23900
C1284       C  0.95012879  0.50825590  0.73267346    -0.24200
C1285       C  0.96649822  0.52469943  0.70691341     0.18800
C1286       C  0.99786952  0.52544962  0.70794351     0.23800
C1287       C  0.01294256  0.50980123  0.73476861    -0.24200
C1288       C  0.99645579  0.49553187  0.76103857     0.18700
F1289       F  0.01056902  0.48279015  0.78786694    -0.14100
F1290       F  0.94972818  0.48163270  0.78598305    -0.16500
F1291       F  0.01346671  0.53917737  0.68218774    -0.16500
F1292       F  0.95227114  0.53785016  0.68026465    -0.14100
C1293       C  0.61672297  0.21563304  0.57684031     0.23900
C1294       C  0.59827965  0.19140771  0.59781877    -0.24200
C1295       C  0.58310596  0.21583383  0.62162918     0.18800
C1296       C  0.58124362  0.26237596  0.62041124     0.23800
C1297       C  0.59503707  0.28621440  0.59572218    -0.24200
C1298       C  0.61527963  0.26241213  0.57596229     0.18700
F1299       F  0.63513169  0.28366273  0.55695999    -0.14100
F1300       F  0.63745881  0.19508413  0.55820639    -0.16500
F1301       F  0.56476140  0.28407193  0.64282155    -0.16500
F1302       F  0.56840378  0.19436667  0.64521835    -0.14100
C1303       C  0.59000703  0.75808508  0.91122692     0.23900
C1304       C  0.59250519  0.78311900  0.88324387    -0.24200
C1305       C  0.58991068  0.75946318  0.85446050     0.18800
C1306       C  0.58726761  0.71284072  0.85380234     0.23800
C1307       C  0.58723986  0.68764309  0.88181809    -0.24200
C1308       C  0.58711424  0.71160034  0.91053665     0.18700
F1309       F  0.58128539  0.69093498  0.93823207    -0.14100
F1310       F  0.58724236  0.77873558  0.93959885    -0.16500
F1311       F  0.58181680  0.69316743  0.82556765    -0.16500
F1312       F  0.58677241  0.78117053  0.82672832    -0.14100
C1313       C  0.50011911  0.99536693  0.97027549     0.23900
C1314       C  0.51851289  0.97947622  0.99460088    -0.24200
C1315       C  0.50582364  0.96727707  0.52386037     0.18800
C1316       C  0.47475685  0.96778679  0.52788788     0.23800
C1317       C  0.45585387  0.97971856  0.00197268    -0.24200
C1318       C  0.46888329  0.99545955  0.97392251     0.18700
F1319       F  0.45142116  0.00980268  0.94977537    -0.14100
F1320       F  0.51232162  0.00976572  0.94278065    -0.16500
F1321       F  0.46299688  0.95599984  0.55620271    -0.16500
F1322       F  0.52346241  0.95538319  0.54851800    -0.14100
C1323       C  0.49926711  0.06843760  0.57594268     0.23900
C1324       C  0.51928400  0.07425939  0.60110677    -0.24200
C1325       C  0.50766777  0.07746742  0.63171799     0.18800
C1326       C  0.47655232  0.07663141  0.63718374     0.23800
C1327       C  0.45598805  0.07142655  0.61203525    -0.24200
C1328       C  0.46795422  0.06624856  0.58134858     0.18700
F1329       F  0.44950817  0.05959563  0.55642276    -0.14100
F1330       F  0.50996740  0.06720139  0.54598434    -0.16500
F1331       F  0.46681486  0.08435090  0.66703507    -0.16500
F1332       F  0.52650108  0.08491138  0.65628455    -0.14100
C1333       C  0.47081799  0.89037906  0.92851938     0.23900
C1334       C  0.45219546  0.89712555  0.90226110    -0.24200
C1335       C  0.46554098  0.90959402  0.87355475     0.18800
C1336       C  0.49712155  0.91206706  0.87056747     0.23800
C1337       C  0.51580902  0.90235569  0.89629499    -0.24200
C1338       C  0.50232548  0.89314162  0.92558798     0.18700
F1339       F  0.51984232  0.88286137  0.95068881    -0.14100
F1340       F  0.45858101  0.87780435  0.95643000    -0.16500
F1341       F  0.50951848  0.91947321  0.84181304    -0.16500
F1342       F  0.44813217  0.91521039  0.84768219    -0.14100
C1343       C  0.46709262  0.39284523  0.55870226     0.23900
C1344       C  0.44981024  0.40293315  0.58566737    -0.24200
C1345       C  0.46470103  0.41747738  0.61300739     0.18800
C1346       C  0.49645627  0.41758078  0.61424436     0.23800
C1347       C  0.51357981  0.40330343  0.58809657    -0.24200
C1348       C  0.49865753  0.39316502  0.55989162     0.18700
F1349       F  0.51471695  0.37968230  0.53424487    -0.14100
F1350       F  0.45335556  0.37828774  0.53208902    -0.16500
F1351       F  0.51034656  0.42740314  0.64180300    -0.16500
F1352       F  0.44858910  0.42675059  0.63949149    -0.14100
C1353       C  0.39738391  0.21014548  0.62754575     0.23900
C1354       C  0.38441261  0.17987922  0.60639680    -0.24200
C1355       C  0.37020197  0.19628410  0.57940173     0.18800
C1356       C  0.36829195  0.24259909  0.57392635     0.23800
C1357       C  0.38090317  0.27364018  0.59554103    -0.24200
C1358       C  0.39570433  0.25604832  0.62228179     0.18700
F1359       F  0.40912535  0.28361133  0.64347032    -0.14100
F1360       F  0.41198939  0.19509793  0.65348093    -0.16500
F1361       F  0.35423406  0.25584266  0.54737848    -0.16500
F1362       F  0.35733720  0.16743108  0.55872729    -0.14100
C1363       C  0.45962177  0.55303180  0.86045170     0.23900
C1364       C  0.44464916  0.56420778  0.88866213    -0.24200
C1365       C  0.46191024  0.57350495  0.91558157     0.18800
C1366       C  0.49343638  0.57548677  0.91366912     0.23800
C1367       C  0.50831500  0.56819403  0.88481788    -0.24200
C1368       C  0.49130281  0.55508491  0.85851918     0.18700
F1369       F  0.50510745  0.54837635  0.83031526    -0.14100
F1370       F  0.44347351  0.54481335  0.83401278    -0.16500
F1371       F  0.50934418  0.58809823  0.93943117    -0.16500
F1372       F  0.44801860  0.58460073  0.94309288    -0.14100
C1373       C  0.34917281  0.70760692  0.91274069     0.23900
C1374       C  0.36678161  0.68448167  0.89001991    -0.24200
C1375       C  0.38272882  0.71051575  0.86794291     0.18800
C1376       C  0.38497995  0.75678897  0.87144029     0.23800
C1377       C  0.37141502  0.77912448  0.89718251    -0.24200
C1378       C  0.35142772  0.75416818  0.91622446     0.18700
F1379       F  0.33259843  0.77415166  0.93721245    -0.14100
F1380       F  0.32873182  0.68645080  0.93106405    -0.16500
F1381       F  0.40147988  0.77973872  0.84994337    -0.16500
F1382       F  0.39772349  0.69071675  0.84362240    -0.14100
C1383       C  0.49225908  0.49123094  0.01395639     0.23900
C1384       C  0.50738731  0.48210952  0.48546132    -0.24200
C1385       C  0.49186471  0.46990565  0.45805961     0.18800
C1386       C  0.46058174  0.46836666  0.45828629     0.23800
C1387       C  0.44464811  0.47904447  0.48591090    -0.24200
C1388       C  0.46096635  0.48937984  0.01416061     0.18700
F1389       F  0.44578775  0.49940798  0.04113285    -0.14100
F1390       F  0.50694594  0.50294598  0.04071551    -0.16500
F1391       F  0.44584681  0.45778304  0.43132120    -0.16500
F1392       F  0.50695702  0.46070919  0.43088114    -0.14100
loop_ 
_geom_bond_atom_site_label_1 
_geom_bond_atom_site_label_2 
_geom_bond_distance 
_geom_bond_site_symmetry_2 
_ccdc_geom_bond_type 
O1           Cu9   2.011       .  S
O1           C11   1.277       .  A
O2         Cu705   2.019   1_554  S
O2           C12   1.280       .  A
O3           Cu9   1.966       .  S
O3          C709   1.273       .  A
O4           Cu9   1.996       .  S
O4           C14   1.275       .  A
O5          Cu10   2.004       .  S
O5          C710   1.277   1_554  A
O6          Cu10   1.980       .  S
O6           C13   1.275   1_554  A
O7          Cu10   1.995       .  S
O7           C12   1.275       .  A
O8         Cu706   2.001       .  S
O8           C11   1.278       .  A
Cu9         O698   2.023       .  S
Cu9        Cu706   2.376       .  S
Cu10        O704   2.004   1_554  S
Cu10       Cu705   2.376   1_554  S
C11         C206   1.473       .  S
C12         C218   1.475       .  S
C13         O699   1.273       .  A
C13         C688   1.449       .  S
C14         O701   1.277       .  A
C14        C1010   1.456       .  S
O15         Cu23   2.004       .  S
O15          C25   1.276       .  A
O16        Cu719   2.010       .  S
O16          C26   1.280       .  A
O17         Cu23   2.004       .  S
O17          C27   1.276   1_554  A
O18         Cu23   1.974       .  S
O18          C28   1.274   1_554  A
O19         Cu24   1.976       .  S
O19         C724   1.274       .  A
O20         Cu24   2.018       .  S
O20         C723   1.277       .  A
O21         Cu24   2.024       .  S
O21          C26   1.278       .  A
O22        Cu720   2.040   1_554  S
O22          C25   1.283       .  A
Cu23        O712   2.011   1_554  S
Cu23       Cu720   2.373   1_554  S
Cu24        O718   2.039       .  S
Cu24       Cu719   2.373       .  S
C25          C46   1.487       .  S
C26          C34   1.484       .  S
C27         O716   1.277       .  A
C27         C438   1.464       .  S
C28         O715   1.274       .  A
C28         C691   1.451       .  S
C29          C30   1.539       .  S
C29          C35   1.536       .  S
C29          C33   1.544       .  S
C29         C678   1.541       .  S
C30          H37   1.086       .  S
C30          C31   1.367       .  D
C31          C73   1.479       .  S
C31          C32   1.543       .  S
C32          C36   1.544       .  S
C32          C34   1.551       .  S
C32          H38   1.111       .  S
C33          H39   1.078       .  S
C33          C34   1.368       .  D
C35          H40   1.087       .  S
C35          C36   1.360       .  D
C36         C668   1.487       .  S
C41          C42   1.543       .  S
C41          C47   1.532       .  S
C41          C45   1.552       .  S
C41         C661   1.544       .  S
C42          H49   1.086       .  S
C42          C43   1.365       .  D
C43          C56   1.484       .  S
C43          C44   1.541       .  S
C44          C48   1.546       .  S
C44          C46   1.552       .  S
C44          H50   1.111       .  S
C45          H51   1.079       .  S
C45          C46   1.373       .  D
C47          H52   1.088       .  S
C47          C48   1.358       .  D
C48         C648   1.488       .  S
N53          N54   1.326       .  A
N53          C57   1.354       .  A
N53         Cu61   2.117       .  S
N54          C55   1.346       .  A
N54         Cu60   2.087       .  S
C55          C56   1.382       .  A
C55          H58   1.082       .  S
C56          C57   1.389       .  A
C57          H59   1.082       .  S
Cu60         N63   2.085       .  S
Cu61         N71   2.117       .  S
Cu62         N64   2.063       .  S
Cu62         N70   2.064       .  S
N63          N64   1.321       .  A
N63          C67   1.348       .  A
N64          C65   1.345       .  A
C65          C66   1.380       .  A
C65          H68   1.080       .  S
C66         C261   1.466       .  S
C66          C67   1.385       .  A
C67          H69   1.080       .  S
N70          N71   1.324       .  A
N70          C74   1.343       .  A
N71          C72   1.354       .  A
C72          C73   1.391       .  A
C72          H75   1.082       .  S
C73          C74   1.377       .  A
C74          H76   1.081       .  S
C77          C78   1.543       .  S
C77          C83   1.536       .  S
C77          C81   1.547       .  S
C77         C681   1.539       .  S
C78          H85   1.087       .  S
C78          C79   1.364       .  D
C79         C638   1.491       .  S
C79          C80   1.544       .  S
C80          C84   1.531       .  S
C80          C82   1.543       .  S
C80          H86   1.111       .  S
C81          H87   1.080       .  S
C81          C82   1.368       .  D
C82         C149   1.474       .  S
C83          H88   1.087       .  S
C83          C84   1.362       .  D
C84         C104   1.468       .  S
C89          C90   1.525       .  S
C89          C95   1.527       .  S
C89          C93   1.533       .  S
C89         C121   1.503       .  S
C90          H97   1.087       .  S
C90          C91   1.362       .  D
C91         C150   1.473       .  S
C91          C92   1.550       .  S
C92          C96   1.543       .  S
C92          C94   1.559       .  S
C92          H98   1.109       .  S
C93          H99   1.083       .  S
C93          C94   1.373       .  D
C94         C631   1.507       .  S
C95         H100   1.087       .  S
C95          C96   1.361       .  D
C96         C658   1.481       .  S
N101        N102   1.325       .  A
N101        C105   1.347       .  A
N101       Cu109   2.077   1_565  S
N102        C103   1.343       .  A
N102       Cu108   2.079       .  S
C103        C104   1.380       .  A
C103        H106   1.081       .  S
C104        C105   1.380       .  A
C105        H107   1.082       .  S
Cu108       N111   2.078       .  S
Cu109       N119   2.077       .  S
Cu110       N112   2.047       .  S
Cu110       N118   2.047       .  S
N111        N112   1.320   1_565  A
N111        C115   1.347       .  A
N112        C113   1.342       .  A
C113        C114   1.375       .  A
C113        H116   1.080       .  S
C114        C385   1.457       .  S
C114        C115   1.384   1_545  A
C115        H117   1.080       .  S
N118        N119   1.320       .  A
N118        C122   1.338       .  A
N119        C120   1.347       .  A
C120        C121   1.389       .  A
C120        H123   1.081       .  S
C121        C122   1.379       .  A
C122        H124   1.082       .  S
O125       Cu133   2.003   1_565  S
O125        C135   1.276       .  A
O126       Cu829   2.009   1_554  S
O126        C136   1.278       .  A
O127       Cu133   2.020       .  S
O127        C137   1.279   1_545  A
O128       Cu133   1.990       .  S
O128        C138   1.276   1_545  A
O129       Cu134   1.970       .  S
O129        C138   1.274       .  A
O130       Cu134   2.011       .  S
O130        C137   1.276       .  A
O131       Cu830   2.020       .  S
O131        C136   1.278   1_565  A
O132       Cu134   2.031       .  S
O132        C135   1.282       .  A
Cu133       O822   2.010       .  S
Cu133      Cu134   2.372   1_545  S
Cu134       O827   2.017       .  S
C135        C158   1.483       .  S
C136        C170   1.480       .  S
C137        C362   1.469       .  S
C138        C618   1.456       .  S
O139       Cu147   1.999       .  S
O139        C149   1.277       .  A
O140       Cu843   1.988       .  S
O140        C150   1.276   1_565  A
O141       Cu147   2.002       .  S
O141        C151   1.275       .  A
O142       Cu147   1.985       .  S
O142        C152   1.276       .  A
O143       Cu148   1.974       .  S
O143        C152   1.274   1_545  A
O144       Cu148   2.019       .  S
O144        C151   1.278   1_545  A
O145       Cu844   2.029   1_554  S
O145        C150   1.279       .  A
O146       Cu148   2.015   1_565  S
O146        C149   1.279       .  A
Cu147       O836   1.990       .  S
Cu147      Cu148   2.378   1_565  S
Cu148       O841   2.030       .  S
C151        C486   1.462       .  S
C152        C621   1.457       .  S
C153        C154   1.543       .  S
C153        C159   1.528       .  S
C153        C157   1.549       .  S
C153        C608   1.536       .  S
C154        H161   1.084       .  S
C154        C155   1.366       .  D
C155        C180   1.476       .  S
C155        C156   1.540       .  S
C156        C160   1.547       .  S
C156        C158   1.549       .  S
C156        H162   1.111       .  S
C157        H163   1.085       .  S
C157        C158   1.369       .  D
C159        H164   1.088       .  S
C159        C160   1.356       .  D
C160        C641   1.489       .  S
C165        C166   1.537       .  S
C165        C171   1.538       .  S
C165        C169   1.546       .  S
C165        C598   1.536       .  S
C166        H173   1.086       .  S
C166        C167   1.365       .  D
C167        C197   1.470       .  S
C167        C168   1.535       .  S
C168        C172   1.544       .  S
C168        C170   1.546       .  S
C168        H174   1.111       .  S
C169        H175   1.080       .  S
C169        C170   1.368       .  D
C171        H176   1.087       .  S
C171        C172   1.359       .  D
C172        C628   1.483       .  S
N177        N178   1.323       .  A
N177        C181   1.349       .  A
N177       Cu185   2.087       .  S
N178        C179   1.345       .  A
N178       Cu184   2.082       .  S
C179        C180   1.383       .  A
C179        H182   1.082       .  S
C180        C181   1.385       .  A
C181        H183   1.082       .  S
Cu184       N187   2.081       .  S
Cu185       N195   2.087   1_565  S
Cu186       N188   2.070       .  S
Cu186       N194   2.071   1_565  S
N187        N188   1.322       .  A
N187        C191   1.346       .  A
N188        C189   1.346       .  A
C189        C190   1.382       .  A
C189        H192   1.080       .  S
C190        C398   1.467       .  S
C190        C191   1.383       .  A
C191        H193   1.080       .  S
N194        N195   1.323       .  A
N194        C198   1.344       .  A
N195        C196   1.348       .  A
C196        C197   1.383       .  A
C196        H199   1.082       .  S
C197        C198   1.379       .  A
C198        H200   1.081       .  S
C201        C202   1.535       .  S
C201        C207   1.539       .  S
C201        C205   1.541       .  S
C201        C611   1.537       .  S
C202        H209   1.087       .  S
C202        C203   1.366       .  D
C203        C671   1.489       .  S
C203        C204   1.543       .  S
C204        C208   1.537       .  S
C204        C206   1.543       .  S
C204        H210   1.111       .  S
C205        H211   1.085       .  S
C205        C206   1.365       .  D
C207        H212   1.085       .  S
C207        C208   1.364       .  D
C208        C245   1.469       .  S
C213        C214   1.542       .  S
C213        C219   1.534       .  S
C213        C217   1.547       .  S
C213        C601   1.536       .  S
C214        H221   1.087       .  S
C214        C215   1.365       .  D
C215        C651   1.489       .  S
C215        C216   1.541       .  S
C216        C220   1.534       .  S
C216        C218   1.544       .  S
C216        H222   1.111       .  S
C217        H223   1.079       .  S
C217        C218   1.365       .  D
C219        H224   1.087       .  S
C219        C220   1.363       .  D
C220        C228   1.467       .  S
N225        N226   1.322       .  A
N225        C229   1.347       .  A
N225       Cu233   2.074       .  S
N226        C227   1.343       .  A
N226       Cu232   2.071       .  S
C227        C228   1.380       .  A
C227        H230   1.081       .  S
C228        C229   1.382       .  A
C229        H231   1.082       .  S
Cu232       N235   2.071       .  S
Cu233       N243   2.074       .  S
Cu234       N236   2.085       .  S
Cu234       N242   2.086       .  S
N235        N236   1.321       .  A
N235        C239   1.345       .  A
N236        C237   1.349       .  A
C237        C238   1.385       .  A
C237        H240   1.081       .  S
C238        C275   1.468       .  S
C238        C239   1.381       .  A
C239        H241   1.079       .  S
N242        N243   1.324       .  A
N242        C246   1.344       .  A
N243        C244   1.347       .  A
C244        C245   1.381       .  A
C244        H247   1.082       .  S
C245        C246   1.382       .  A
C246        H248   1.082       .  S
O249       Cu257   1.999       .  S
O249        C259   1.275       .  A
O250       Cu257   2.005       .  S
O250        C260   1.278       .  A
O251       Cu257   2.011       .  S
O251        C261   1.277       .  A
O252       Cu257   1.978       .  S
O252        C262   1.276       .  A
O253       Cu258   1.971       .  S
O253        C262   1.272       .  A
O254       Cu258   2.015       .  S
O254        C261   1.277       .  A
O255       Cu258   2.028       .  S
O255        C260   1.279       .  A
O256       Cu258   2.042       .  S
O256        C259   1.284       .  A
Cu257      Cu258   2.372       .  S
C259        C406   1.487       .  S
C260        C418   1.480       .  S
C262        C591   1.453       .  S
O263       Cu271   2.007       .  S
O263        C273   1.278       .  A
O264       Cu271   1.995       .  S
O264        C274   1.279       .  A
O265       Cu271   2.004       .  S
O265        C275   1.276       .  A
O266       Cu271   1.984       .  S
O266        C276   1.274       .  A
O267       Cu272   1.969       .  S
O267        C276   1.275       .  A
O268       Cu272   2.026       .  S
O268        C275   1.279       .  A
O269       Cu272   2.035       .  S
O269        C274   1.278       .  A
O270       Cu272   2.013       .  S
O270        C273   1.278       .  A
Cu271      Cu272   2.376       .  S
C273        C282   1.477       .  S
C274        C291   1.481       .  S
C276        C588   1.454       .  S
C277        C278   1.540       .  S
C277        C283   1.545       .  S
C277        C281   1.539       .  S
C277        C578   1.538       .  S
C278        H285   1.087       .  S
C278        C279   1.361       .  D
C279        C568   1.489       .  S
C279        C280   1.543       .  S
C280        C284   1.532       .  S
C280        C282   1.544       .  S
C280        H286   1.111       .  S
C281        H287   1.086       .  S
C281        C282   1.366       .  D
C283        H288   1.078       .  S
C283        C284   1.366       .  D
C284        C304   1.466       .  S
C289        C290   1.525       .  S
C289        C295   1.524       .  S
C289        C293   1.531       .  S
C289        C321   1.501       .  S
C290        H297   1.085       .  S
C290        C291   1.359       .  D
C291        C292   1.557       .  S
C292        C296   1.552       .  S
C292        C294   1.557       .  S
C292        H298   1.110       .  S
C293        H299   1.086       .  S
C293        C294   1.368       .  D
C294        C548   1.499       .  S
C295        H300   1.087       .  S
C295        C296   1.365       .  D
C296        C558   1.488       .  S
N301        N302   1.324       .  A
N301        C305   1.347       .  A
N301       Cu309   2.070       .  S
N302        C303   1.342       .  A
N302       Cu308   2.074       .  S
C303        C304   1.380       .  A
C303        H306   1.082       .  S
C304        C305   1.380       .  A
C305        H307   1.082       .  S
Cu308       N311   2.073       .  S
Cu309      N1015   2.070       .  S
Cu310       N312   2.047   1_554  S
Cu310       N318   2.049       .  S
N311       N1008   1.320       .  A
N311        C315   1.345       .  A
N312       N1007   1.320       .  A
N312        C313   1.343   1_556  A
C313        C314   1.378   1_554  A
C313        H316   1.080       .  S
C314        C710   1.455       .  S
C314       C1011   1.381       .  A
C315       C1010   1.382       .  A
C315        H317   1.080       .  S
N318        N319   1.321       .  A
N318        C322   1.337       .  A
N319        C320   1.344       .  A
N319      Cu1005   2.067   1_554  S
C320        C321   1.385       .  A
C320        H323   1.082       .  S
C321        C322   1.381       .  A
C322        H324   1.080       .  S
C325        C326   1.549       .  S
C325        C331   1.533       .  S
C325        C329   1.533       .  S
C325        C581   1.536       .  S
C326        H333   1.080       .  S
C326        C327   1.369       .  D
C327        C369   1.476       .  S
C327        C328   1.540       .  S
C328        C332   1.547       .  S
C328        C330   1.553       .  S
C328        H334   1.111       .  S
C329        H335   1.087       .  S
C329        C330   1.364       .  D
C330        C399   1.483       .  S
C331        H336   1.088       .  S
C331        C332   1.359       .  D
C332        C538   1.488       .  S
C337        C338   1.544       .  S
C337        C343   1.531       .  S
C337        C341   1.552       .  S
C337        C561   1.544       .  S
C338        H345   1.086       .  S
C338        C339   1.366       .  D
C339        C352   1.478       .  S
C339        C340   1.538       .  S
C340        C344   1.542       .  S
C340        C342   1.546       .  S
C340        H346   1.111       .  S
C341        H347   1.080       .  S
C341        C342   1.371       .  D
C342        C400   1.482       .  S
C343        H348   1.087       .  S
C343        C344   1.360       .  D
C344        C528   1.487       .  S
N349        N350   1.325       .  A
N349        C353   1.351       .  A
N349      Cu1053   2.101   1_544  S
N350        C351   1.345       .  A
N350       Cu356   2.083       .  S
C351        C352   1.381       .  A
C351        H354   1.081       .  S
C352        C353   1.386       .  A
C353        H355   1.081       .  S
Cu356      N1055   2.082   1_545  S
Cu357       N367   2.106       .  S
Cu357      N1045   2.107   1_565  S
Cu358       N360   2.064       .  S
Cu358       N366   2.065   1_545  S
N359        N360   1.321       .  A
N359       C1059   1.348   1_545  A
N359      Cu1052   2.086       .  S
N360        C361   1.345       .  A
C361        C362   1.380   1_545  A
C361        H364   1.081       .  S
C362       C1059   1.387       .  A
C363       N1055   1.347       .  A
C363       C1058   1.385   1_554  A
C363        H365   1.080       .  S
N366        N367   1.323       .  A
N366        C370   1.343       .  A
N367        C368   1.352       .  A
C368        C369   1.389       .  A
C368        H371   1.082       .  S
C369        C370   1.377       .  A
C370        H372   1.082       .  S
O373       Cu381   2.013       .  S
O373        C383   1.278       .  A
O374       Cu381   2.004   1_565  S
O374        C384   1.278       .  A
O375       Cu381   1.993       .  S
O375        C385   1.274       .  A
O376       Cu381   1.978       .  S
O376        C386   1.275       .  A
O377       Cu382   1.969       .  S
O377        C386   1.274   1_565  A
O378       Cu382   2.013       .  S
O378        C385   1.278   1_565  A
O379       Cu382   2.016       .  S
O379        C384   1.277       .  A
O380       Cu382   2.007   1_545  S
O380        C383   1.278       .  A
Cu381      Cu382   2.377   1_545  S
C383        C466   1.476       .  S
C384        C451   1.473       .  S
C386        C521   1.460       .  S
O387       Cu395   1.968       .  S
O387        C397   1.273       .  A
O388       Cu395   2.011       .  S
O388        C398   1.277   1_545  A
O389       Cu395   2.027   1_565  S
O389        C399   1.278       .  A
O390       Cu395   2.028       .  S
O390        C400   1.281       .  A
O391       Cu396   2.002   1_545  S
O391        C400   1.276       .  A
O392       Cu396   2.014       .  S
O392        C399   1.280       .  A
O393       Cu396   2.013       .  S
O393        C398   1.277       .  A
O394       Cu396   1.982       .  S
O394        C397   1.276   1_565  A
Cu395      Cu396   2.370   1_545  S
C397        C518   1.461       .  S
C401        C402   1.550       .  S
C401        C407   1.539       .  S
C401        C405   1.538       .  S
C401        C508   1.543       .  S
C402        H409   1.085       .  S
C402        C403   1.370       .  D
C403        C428   1.485       .  S
C403        C404   1.541       .  S
C404        C408   1.545       .  S
C404        C406   1.553       .  S
C404        H410   1.111       .  S
C405        H411   1.086       .  S
C405        C406   1.368       .  D
C407        H412   1.085       .  S
C407        C408   1.359       .  D
C408        C571   1.489       .  S
C413        C414   1.550       .  S
C413        C419   1.534       .  S
C413        C417   1.537       .  S
C413        C501   1.541       .  S
C414        H421   1.077       .  S
C414        C415   1.367       .  D
C415        C445   1.477       .  S
C415        C416   1.537       .  S
C416        C420   1.545       .  S
C416        C418   1.549       .  S
C416        H422   1.111       .  S
C417        H423   1.086       .  S
C417        C418   1.366       .  D
C419        H424   1.087       .  S
C419        C420   1.359       .  D
C420        C551   1.483       .  S
N425        N426   1.326       .  A
N425        C429   1.353       .  A
N425      Cu1129   2.119       .  S
N426        C427   1.348       .  A
N426       Cu432   2.090       .  S
C427        C428   1.381       .  A
C427        H430   1.081       .  S
C428        C429   1.389       .  A
C429        H431   1.081       .  S
Cu432       N435   2.087       .  S
Cu433       N443   2.111   1_556  S
Cu433      N1121   2.112       .  S
Cu434       N436   2.059   1_554  S
Cu434       N442   2.059       .  S
N435       N1132   1.321       .  A
N435        C439   1.349       .  A
N436       N1131   1.321       .  A
N436        C437   1.343   1_556  A
C437        C438   1.379   1_554  A
C437        H440   1.081       .  S
C438       C1135   1.385       .  A
C439       C1134   1.387       .  A
C439        H441   1.080       .  S
N442        N443   1.323       .  A
N442        C446   1.341       .  A
N443        C444   1.353       .  A
C444        C445   1.391       .  A
C444        H447   1.082       .  S
C445        C446   1.377       .  A
C446        H448   1.082       .  S
C449        C450   1.526       .  S
C449        C455   1.528       .  S
C449        C453   1.533       .  S
C449        C476   1.505       .  S
C450        H457   1.087       .  S
C450        C451   1.360       .  D
C451        C452   1.546       .  S
C452        C456   1.556       .  S
C452        C454   1.553       .  S
C452        H458   1.107       .  S
C453        H459   1.084       .  S
C453        C454   1.369       .  D
C454        C541   1.496       .  S
C455        H460   1.085       .  S
C455        C456   1.369       .  D
C456        C511   1.506       .  S
C461        C462   1.537       .  S
C461        C467   1.546       .  S
C461        C465   1.544       .  S
C461        C498   1.542       .  S
C462        H469   1.087       .  S
C462        C463   1.361       .  D
C463        C531   1.487       .  S
C463        C464   1.541       .  S
C464        C468   1.528       .  S
C464        C466   1.546       .  S
C464        H470   1.111       .  S
C465        H471   1.086       .  S
C465        C466   1.369       .  D
C467        H472   1.077       .  S
C467        C468   1.363       .  D
C468        C493   1.465       .  S
N473        N474   1.321       .  A
N473        C477   1.345       .  A
N473       Cu481   2.066       .  S
N474        C475   1.341       .  A
N474       Cu480   2.068       .  S
C475        C476   1.383       .  A
C475        H478   1.082       .  S
C476        C477   1.386       .  A
C477        H479   1.081       .  S
Cu480       N483   2.068       .  S
Cu481      N1187   2.066       .  S
Cu482       N490   2.074   1_565  S
Cu482      N1180   2.074       .  S
N483        N484   1.321       .  A
N483        C487   1.344       .  A
N484       C1181   1.347       .  A
N484      Cu1178   2.074       .  S
C485       N1180   1.347       .  A
C485       C1182   1.383       .  A
C485        H488   1.080       .  S
C486        C487   1.380       .  A
C486       C1181   1.382       .  A
C487        H489   1.080       .  S
N490        N491   1.323   1_545  A
N490        C494   1.342       .  A
N491        C492   1.346   1_565  A
N491      Cu1177   2.068       .  S
C492        C493   1.380       .  A
C492        H495   1.081       .  S
C493        C494   1.380       .  A
C494        H496   1.082       .  S
C497        C498   1.411       .  A
C497        C502   1.397       .  A
C497        F504   1.359       .  S
C498        C499   1.417       .  A
C499        C500   1.400       .  A
C499        F506   1.351       .  S
C500        C501   1.414       .  A
C500        F505   1.351       .  S
C501        C502   1.413       .  A
C502        F503   1.359       .  S
C507        C508   1.417       .  A
C507        C512   1.402       .  A
C507        F514   1.358       .  S
C508        C509   1.410       .  A
C509        C510   1.403       .  A
C509        F516   1.357       .  S
C510        C511   1.415       .  A
C510        F515   1.358       .  S
C511        C512   1.408       .  A
C512        F513   1.356       .  S
C517        C518   1.404   1_565  A
C517        C522   1.388   1_655  A
C517        F524   1.358       .  S
C518        C519   1.406       .  A
C519        C520   1.387       .  A
C519        F526   1.358       .  S
C520        C521   1.403   1_655  A
C520        F525   1.358   1_655  S
C521        C522   1.406   1_545  A
C522        F523   1.359       .  S
C527        C528   1.407       .  A
C527        C532   1.400       .  A
C527        F534   1.358       .  S
C528        C529   1.406       .  A
C529        C530   1.408   1_655  A
C529        F536   1.357       .  S
C530        C531   1.407       .  A
C530        F535   1.357       .  S
C531        C532   1.405   1_455  A
C532        F533   1.358   1_655  S
C537        C538   1.405       .  A
C537        C542   1.396       .  A
C537        F544   1.359       .  S
C538        C539   1.406       .  A
C539        C540   1.410   1_655  A
C539        F546   1.357       .  S
C540        C541   1.411       .  A
C540        F545   1.357       .  S
C541        C542   1.409   1_455  A
C542        F543   1.358   1_655  S
C547        C548   1.414       .  A
C547        C552   1.398       .  A
C547        F554   1.358       .  S
C548        C549   1.409       .  A
C549        C550   1.409       .  A
C549        F556   1.356       .  S
C550        C551   1.406   1_655  A
C550        F555   1.357   1_655  S
C551        C552   1.401   1_455  A
C552        F553   1.359   1_655  S
C557        C558   1.403       .  A
C557        C562   1.396       .  A
C557        F564   1.359       .  S
C558        C559   1.401       .  A
C559        C560   1.408       .  A
C559        F566   1.358       .  S
C560        C561   1.421       .  A
C560        F565   1.353       .  S
C561        C562   1.416       .  A
C562        F563   1.359       .  S
C567        C568   1.407       .  A
C567        C572   1.409       .  A
C567        F574   1.357       .  S
C568        C569   1.405       .  A
C569        C570   1.402       .  A
C569        F576   1.358       .  S
C570        C571   1.406   1_655  A
C570        F575   1.358   1_655  S
C571        C572   1.407   1_455  A
C572        F573   1.357   1_655  S
C577        C578   1.416       .  A
C577        C582   1.404       .  A
C577        F584   1.353       .  S
C578        C579   1.410       .  A
C579        C580   1.392       .  A
C579        F586   1.359       .  S
C580        C581   1.412       .  A
C580        F585   1.359       .  S
C581        C582   1.413       .  A
C582        F583   1.353       .  S
C587        C588   1.403       .  A
C587        C592   1.384       .  A
C587        F594   1.359       .  S
C588        C589   1.403       .  A
C589        C590   1.392       .  A
C589        F596   1.358       .  S
C590        C591   1.406   1_655  A
C590        F595   1.358   1_655  S
C591        C592   1.401   1_455  A
C592        F593   1.359   1_655  S
C597        C598   1.412       .  A
C597        C602   1.402       .  A
C597        F604   1.354       .  S
C598        C599   1.412       .  A
C599        C600   1.396       .  A
C599        F606   1.359       .  S
C600        C601   1.410       .  A
C600        F605   1.359       .  S
C601        C602   1.414       .  A
C602        F603   1.354       .  S
C607        C608   1.413       .  A
C607        C612   1.398       .  A
C607        F614   1.357       .  S
C608        C609   1.416       .  A
C609        C610   1.400       .  A
C609        F616   1.356       .  S
C610        C611   1.412       .  A
C610        F615   1.357       .  S
C611        C612   1.412       .  A
C612        F613   1.357       .  S
C617        C618   1.403       .  A
C617        C622   1.392       .  A
C617        F624   1.358   1_565  S
C618       C1315   1.404       .  A
C619        C620   1.386       .  A
C619       C1314   1.405   1_554  A
C619        F626   1.358       .  S
C620       C1317   1.402       .  A
C620        F625   1.358       .  S
C621        C622   1.406       .  A
C621       C1316   1.401       .  A
C622        F623   1.359   1_565  S
C627        C628   1.404       .  A
C627        C632   1.408       .  A
C627        F634   1.357       .  S
C628        C629   1.400       .  A
C629        C630   1.398       .  A
C629        F636   1.358       .  S
C630        C631   1.416       .  A
C630        F635   1.357       .  S
C631        C632   1.413       .  A
C632        F633   1.356       .  S
C637        C638   1.406       .  A
C637        C642   1.404       .  A
C637        F644   1.358       .  S
C638        C639   1.407       .  A
C639        C640   1.408       .  A
C639        F646   1.357       .  S
C640        C641   1.406       .  A
C640        F645   1.357       .  S
C641        C642   1.408       .  A
C642        F643   1.358       .  S
C647        C648   1.407       .  A
C647        C652   1.400       .  A
C647        F654   1.358       .  S
C648        C649   1.407       .  A
C649        C650   1.409       .  A
C649        F656   1.357       .  S
C650        C651   1.407       .  A
C650        F655   1.357       .  S
C651        C652   1.405       .  A
C652        F653   1.358       .  S
C657        C658   1.399       .  A
C657        C662   1.394       .  A
C657        F664   1.359       .  S
C658        C659   1.402       .  A
C659        C660   1.408       .  A
C659        F666   1.358       .  S
C660        C661   1.421       .  A
C660        F665   1.352       .  S
C661        C662   1.418       .  A
C662        F663   1.359       .  S
C667        C668   1.406       .  A
C667        C672   1.408       .  A
C667        F674   1.357       .  S
C668        C669   1.407       .  A
C669        C670   1.401       .  A
C669        F676   1.358       .  S
C670        C671   1.405       .  A
C670        F675   1.358       .  S
C671        C672   1.407       .  A
C672        F673   1.357       .  S
C677        C678   1.416       .  A
C677        C682   1.405       .  A
C677        F684   1.353       .  S
C678        C679   1.411       .  A
C679        C680   1.395       .  A
C679        F686   1.358       .  S
C680        C681   1.411       .  A
C680        F685   1.358       .  S
C681        C682   1.415       .  A
C682        F683   1.354       .  S
C687        C692   1.389       .  A
C687       C1384   1.401       .  A
C687        F694   1.358       .  S
C688        C689   1.403       .  A
C688       C1383   1.402   1_556  A
C689        C690   1.386       .  A
C689        F696   1.359       .  S
C690        C691   1.403       .  A
C690        F695   1.358       .  S
C691       C1388   1.403   1_556  A
C692       C1387   1.403       .  A
C692        F693   1.358       .  S
O697       Cu705   2.009       .  S
O697        C707   1.277       .  A
O698        C708   1.281       .  A
O699       Cu705   1.963       .  S
O700       Cu705   1.991       .  S
O700        C710   1.274       .  A
O701       Cu706   2.006       .  S
O702       Cu706   1.982       .  S
O702        C709   1.275       .  A
O703       Cu706   1.993       .  S
O703        C708   1.274       .  A
O704        C707   1.278       .  A
C707        C902   1.473       .  S
C708        C914   1.475       .  S
C709       C1384   1.450       .  S
O711       Cu719   2.005       .  S
O711        C721   1.276       .  A
O712        C722   1.280       .  A
O713       Cu719   2.006       .  S
O713        C723   1.277       .  A
O714       Cu719   1.975       .  S
O714        C724   1.274       .  A
O715       Cu720   1.973       .  S
O716       Cu720   2.014       .  S
O717       Cu720   2.027       .  S
O717        C722   1.279       .  A
O718        C721   1.283       .  A
C721        C742   1.487       .  S
C722        C730   1.485       .  S
C723       C1134   1.467       .  S
C724       C1387   1.451       .  S
C725        C726   1.538       .  S
C725        C731   1.535       .  S
C725        C729   1.545       .  S
C725       C1374   1.540       .  S
C726        H733   1.086       .  S
C726        C727   1.366       .  D
C727        C769   1.477       .  S
C727        C728   1.541       .  S
C728        C732   1.544       .  S
C728        C730   1.550       .  S
C728        H734   1.111       .  S
C729        H735   1.079       .  S
C729        C730   1.369       .  D
C731        H736   1.087       .  S
C731        C732   1.360       .  D
C732       C1364   1.486       .  S
C737        C738   1.545       .  S
C737        C743   1.532       .  S
C737        C741   1.552       .  S
C737       C1357   1.544       .  S
C738        H745   1.086       .  S
C738        C739   1.365       .  D
C739        C752   1.482       .  S
C739        C740   1.539       .  S
C740        C744   1.545       .  S
C740        C742   1.552       .  S
C740        H746   1.111       .  S
C741        H747   1.079       .  S
C741        C742   1.372       .  D
C743        H748   1.088       .  S
C743        C744   1.358       .  D
C744       C1344   1.487       .  S
N749        N750   1.325       .  A
N749        C753   1.352       .  A
N749       Cu757   2.111       .  S
N750        C751   1.346       .  A
N750       Cu756   2.085       .  S
C751        C752   1.381       .  A
C751        H754   1.082       .  S
C752        C753   1.388       .  A
C753        H755   1.082       .  S
Cu756       N759   2.084       .  S
Cu757       N767   2.110       .  S
Cu758       N760   2.065       .  S
Cu758       N766   2.066       .  S
N759        N760   1.321       .  A
N759        C763   1.347       .  A
N760        C761   1.346       .  A
C761        C762   1.381       .  A
C761        H764   1.080       .  S
C762        C957   1.467       .  S
C762        C763   1.385       .  A
C763        H765   1.080       .  S
N766        N767   1.324       .  A
N766        C770   1.343       .  A
N767        C768   1.353       .  A
C768        C769   1.390       .  A
C768        H771   1.082       .  S
C769        C770   1.377       .  A
C770        H772   1.081       .  S
C773        C774   1.543       .  S
C773        C779   1.534       .  S
C773        C777   1.545       .  S
C773       C1377   1.538       .  S
C774        H781   1.087       .  S
C774        C775   1.365       .  D
C775       C1334   1.490       .  S
C775        C776   1.543       .  S
C776        C780   1.530       .  S
C776        C778   1.542       .  S
C776        H782   1.111       .  S
C777        H783   1.080       .  S
C777        C778   1.367       .  D
C778        C845   1.472       .  S
C779        H784   1.087       .  S
C779        C780   1.363       .  D
C780        C800   1.465       .  S
C785        C786   1.525       .  S
C785        C791   1.526       .  S
C785        C789   1.534       .  S
C785        C817   1.502       .  S
C786        H793   1.087       .  S
C786        C787   1.362       .  D
C787        C846   1.474       .  S
C787        C788   1.551       .  S
C788        C792   1.544       .  S
C788        C790   1.559       .  S
C788        H794   1.108       .  S
C789        H795   1.082       .  S
C789        C790   1.373       .  D
C790       C1327   1.506       .  S
C791        H796   1.087       .  S
C791        C792   1.361       .  D
C792       C1354   1.483       .  S
N797        N798   1.324       .  A
N797        C801   1.347       .  A
N797       Cu805   2.074   1_565  S
N798        C799   1.342       .  A
N798       Cu804   2.073       .  S
C799        C800   1.379       .  A
C799        H802   1.081       .  S
C800        C801   1.380       .  A
C801        H803   1.082       .  S
Cu804       N807   2.072       .  S
Cu805       N815   2.074       .  S
Cu806       N808   2.048       .  S
Cu806       N814   2.048       .  S
N807        N808   1.320   1_565  A
N807        C811   1.346       .  A
N808        C809   1.342       .  A
C809        C810   1.376       .  A
C809        H812   1.080       .  S
C810       C1081   1.455       .  S
C810        C811   1.383   1_545  A
C811        H813   1.080       .  S
N814        N815   1.321       .  A
N814        C818   1.338       .  A
N815        C816   1.347       .  A
C816        C817   1.388       .  A
C816        H819   1.081       .  S
C817        C818   1.379       .  A
C818        H820   1.082       .  S
O821       Cu829   2.000   1_565  S
O821        C831   1.275       .  A
O822        C832   1.279       .  A
O823       Cu829   2.020       .  S
O823        C833   1.279   1_545  A
O824       Cu829   1.992       .  S
O824        C834   1.276   1_545  A
O825       Cu830   1.967       .  S
O825        C834   1.273   1_554  A
O826       Cu830   2.007       .  S
O826        C833   1.276   1_554  A
O827        C832   1.278   1_565  A
O828       Cu830   2.030   1_556  S
O828        C831   1.282       .  A
Cu829      Cu830   2.372   1_546  S
C831        C854   1.481       .  S
C832        C866   1.479       .  S
C833       C1058   1.467       .  S
C834       C1314   1.458       .  S
O835       Cu843   1.993   1_556  S
O835        C845   1.276       .  A
O836        C846   1.277   1_565  A
O837       Cu843   2.001       .  S
O837        C847   1.275       .  A
O838       Cu843   1.985       .  S
O838        C848   1.276       .  A
O839       Cu844   1.974       .  S
O839        C848   1.274   1_546  A
O840       Cu844   2.020   1_554  S
O840        C847   1.278   1_545  A
O841        C846   1.279       .  A
O842       Cu844   2.015   1_565  S
O842        C845   1.279       .  A
Cu843      Cu844   2.378   1_564  S
C847       C1182   1.462       .  S
C848       C1317   1.458       .  S
C849        C850   1.542       .  S
C849        C855   1.529       .  S
C849        C853   1.547       .  S
C849       C1304   1.535       .  S
C850        H857   1.085       .  S
C850        C851   1.366       .  D
C851        C876   1.476       .  S
C851        C852   1.540       .  S
C852        C856   1.546       .  S
C852        C854   1.549       .  S
C852        H858   1.111       .  S
C853        H859   1.085       .  S
C853        C854   1.368       .  D
C855        H860   1.088       .  S
C855        C856   1.357       .  D
C856       C1337   1.488       .  S
C861        C862   1.538       .  S
C861        C867   1.537       .  S
C861        C865   1.545       .  S
C861       C1294   1.534       .  S
C862        H869   1.086       .  S
C862        C863   1.365       .  D
C863        C893   1.471       .  S
C863        C864   1.535       .  S
C864        C868   1.543       .  S
C864        C866   1.546       .  S
C864        H870   1.111       .  S
C865        H871   1.080       .  S
C865        C866   1.368       .  D
C867        H872   1.087       .  S
C867        C868   1.358       .  D
C868       C1324   1.482       .  S
N873        N874   1.323       .  A
N873        C877   1.350       .  A
N873       Cu881   2.090       .  S
N874        C875   1.345       .  A
N874       Cu880   2.078       .  S
C875        C876   1.382       .  A
C875        H878   1.082       .  S
C876        C877   1.386       .  A
C877        H879   1.082       .  S
Cu880       N883   2.077       .  S
Cu881       N891   2.090   1_565  S
Cu882       N884   2.071       .  S
Cu882       N890   2.072   1_565  S
N883        N884   1.322       .  A
N883        C887   1.345       .  A
N884        C885   1.346       .  A
C885        C886   1.382       .  A
C885        H888   1.080       .  S
C886       C1094   1.466       .  S
C886        C887   1.382       .  A
C887        H889   1.080       .  S
N890        N891   1.324       .  A
N890        C894   1.344       .  A
N891        C892   1.348       .  A
C892        C893   1.384       .  A
C892        H895   1.082       .  S
C893        C894   1.379       .  A
C894        H896   1.081       .  S
C897        C898   1.535       .  S
C897        C903   1.539       .  S
C897        C901   1.542       .  S
C897       C1307   1.536       .  S
C898        H905   1.087       .  S
C898        C899   1.364       .  D
C899       C1367   1.488       .  S
C899        C900   1.543       .  S
C900        C904   1.539       .  S
C900        C902   1.543       .  S
C900        H906   1.111       .  S
C901        H907   1.084       .  S
C901        C902   1.365       .  D
C903        H908   1.085       .  S
C903        C904   1.364       .  D
C904        C941   1.471       .  S
C909        C910   1.541       .  S
C909        C915   1.532       .  S
C909        C913   1.546       .  S
C909       C1297   1.534       .  S
C910        H917   1.087       .  S
C910        C911   1.365       .  D
C911       C1347   1.487       .  S
C911        C912   1.541       .  S
C912        C916   1.535       .  S
C912        C914   1.545       .  S
C912        H918   1.111       .  S
C913        H919   1.080       .  S
C913        C914   1.365       .  D
C915        H920   1.087       .  S
C915        C916   1.362       .  D
C916        C924   1.468       .  S
N921        N922   1.322       .  A
N921        C925   1.347       .  A
N921       Cu929   2.077       .  S
N922        C923   1.342       .  A
N922       Cu928   2.070       .  S
C923        C924   1.380       .  A
C923        H926   1.081       .  S
C924        C925   1.383       .  A
C925        H927   1.082       .  S
Cu928       N931   2.069       .  S
Cu929       N939   2.078       .  S
Cu930       N932   2.089       .  S
Cu930       N938   2.090       .  S
N931        N932   1.321       .  A
N931        C935   1.345       .  A
N932        C933   1.350       .  A
C933        C934   1.386       .  A
C933        H936   1.081       .  S
C934        C971   1.469       .  S
C934        C935   1.380       .  A
C935        H937   1.079       .  S
N938        N939   1.324       .  A
N938        C942   1.345       .  A
N939        C940   1.347       .  A
C940        C941   1.382       .  A
C940        H943   1.082       .  S
C941        C942   1.383       .  A
C942        H944   1.082       .  S
O945       Cu953   2.001       .  S
O945        C955   1.275       .  A
O946       Cu953   2.007       .  S
O946        C956   1.278       .  A
O947       Cu953   2.013       .  S
O947        C957   1.277       .  A
O948       Cu953   1.979       .  S
O948        C958   1.276       .  A
O949       Cu954   1.970       .  S
O949        C958   1.273       .  A
O950       Cu954   2.014       .  S
O950        C957   1.277       .  A
O951       Cu954   2.028       .  S
O951        C956   1.279       .  A
O952       Cu954   2.038       .  S
O952        C955   1.284       .  A
Cu953      Cu954   2.372       .  S
C955       C1102   1.486       .  S
C956       C1114   1.481       .  S
C958       C1287   1.454       .  S
O959       Cu967   2.005       .  S
O959        C969   1.277       .  A
O960       Cu967   1.995       .  S
O960        C970   1.278       .  A
O961       Cu967   2.008       .  S
O961        C971   1.277       .  A
O962       Cu967   1.988       .  S
O962        C972   1.275       .  A
O963       Cu968   1.967       .  S
O963        C972   1.274       .  A
O964       Cu968   2.024       .  S
O964        C971   1.279       .  A
O965       Cu968   2.033       .  S
O965        C970   1.278       .  A
O966       Cu968   2.010       .  S
O966        C969   1.278       .  A
Cu967      Cu968   2.376       .  S
C969        C978   1.475       .  S
C970        C987   1.480       .  S
C972       C1284   1.455       .  S
C973        C974   1.538       .  S
C973        C979   1.546       .  S
C973        C977   1.541       .  S
C973       C1274   1.539       .  S
C974        H981   1.087       .  S
C974        C975   1.360       .  D
C975       C1264   1.488       .  S
C975        C976   1.542       .  S
C976        C980   1.530       .  S
C976        C978   1.542       .  S
C976        H982   1.111       .  S
C977        H983   1.086       .  S
C977        C978   1.366       .  D
C979        H984   1.078       .  S
C979        C980   1.367       .  D
C980       C1000   1.466       .  S
C985        C986   1.523       .  S
C985        C991   1.525       .  S
C985        C989   1.530       .  S
C985       C1017   1.499       .  S
C986        H993   1.087       .  S
C986        C987   1.361       .  D
C987        C988   1.557       .  S
C988        C992   1.551       .  S
C988        C990   1.557       .  S
C988        H994   1.110       .  S
C989        H995   1.084       .  S
C989        C990   1.368       .  D
C990       C1244   1.498       .  S
C991        H996   1.087       .  S
C991        C992   1.364       .  D
C992       C1254   1.486       .  S
N997        N998   1.323       .  A
N997       C1001   1.346       .  A
N997      Cu1005   2.066       .  S
N998        C999   1.342       .  A
N998      Cu1004   2.067       .  S
C999       C1000   1.379       .  A
C999       H1002   1.082       .  S
C1000      C1001   1.379       .  A
C1001      H1003   1.082       .  S
Cu1004     N1007   2.065       .  S
Cu1006     N1008   2.045       .  S
Cu1006     N1014   2.046       .  S
N1007      C1011   1.343       .  A
N1008      C1009   1.342       .  A
C1009      C1010   1.377       .  A
C1009      H1012   1.080       .  S
C1011      H1013   1.080       .  S
N1014      N1015   1.321       .  A
N1014      C1018   1.338       .  A
N1015      C1016   1.345       .  A
C1016      C1017   1.387       .  A
C1016      H1019   1.081       .  S
C1017      C1018   1.378       .  A
C1018      H1020   1.081       .  S
C1021      C1022   1.549       .  S
C1021      C1027   1.534       .  S
C1021      C1025   1.536       .  S
C1021      C1277   1.538       .  S
C1022      H1029   1.079       .  S
C1022      C1023   1.367       .  D
C1023      C1065   1.473       .  S
C1023      C1024   1.537       .  S
C1024      C1028   1.545       .  S
C1024      C1026   1.551       .  S
C1024      H1030   1.111       .  S
C1025      H1031   1.086       .  S
C1025      C1026   1.365       .  D
C1026      C1095   1.482       .  S
C1027      H1032   1.088       .  S
C1027      C1028   1.359       .  D
C1028      C1234   1.485       .  S
C1033      C1034   1.543       .  S
C1033      C1039   1.530       .  S
C1033      C1037   1.551       .  S
C1033      C1257   1.543       .  S
C1034      H1041   1.086       .  S
C1034      C1035   1.365       .  D
C1035      C1048   1.480       .  S
C1035      C1036   1.540       .  S
C1036      C1040   1.544       .  S
C1036      C1038   1.547       .  S
C1036      H1042   1.111       .  S
C1037      H1043   1.079       .  S
C1037      C1038   1.372       .  D
C1038      C1096   1.482       .  S
C1039      H1044   1.088       .  S
C1039      C1040   1.359       .  D
C1040      C1224   1.488       .  S
N1045      N1046   1.325       .  A
N1045      C1049   1.352       .  A
N1046      C1047   1.346       .  A
N1046     Cu1052   2.087       .  S
C1047      C1048   1.381       .  A
C1047      H1050   1.081       .  S
C1048      C1049   1.388       .  A
C1049      H1051   1.081       .  S
Cu1053     N1063   2.101       .  S
Cu1054     N1056   2.064       .  S
Cu1054     N1062   2.065       .  S
N1055      N1056   1.321   1_554  A
N1056      C1057   1.346       .  A
C1057      C1058   1.381       .  A
C1057      H1060   1.081       .  S
C1059      H1061   1.080       .  S
N1062      N1063   1.323       .  A
N1062      C1066   1.342       .  A
N1063      C1064   1.351       .  A
C1064      C1065   1.389       .  A
C1064      H1067   1.082       .  S
C1065      C1066   1.377       .  A
C1066      H1068   1.082       .  S
O1069     Cu1077   2.008       .  S
O1069      C1079   1.277       .  A
O1070     Cu1077   2.000   1_565  S
O1070      C1080   1.278       .  A
O1071     Cu1077   1.994       .  S
O1071      C1081   1.274       .  A
O1072     Cu1077   1.985       .  S
O1072      C1082   1.276       .  A
O1073     Cu1078   1.967       .  S
O1073      C1082   1.273   1_565  A
O1074     Cu1078   2.009       .  S
O1074      C1081   1.277   1_565  A
O1075     Cu1078   2.016       .  S
O1075      C1080   1.277       .  A
O1076     Cu1078   2.009   1_545  S
O1076      C1079   1.278       .  A
Cu1077    Cu1078   2.378   1_545  S
C1079      C1162   1.474       .  S
C1080      C1147   1.471       .  S
C1082      C1217   1.459       .  S
O1083     Cu1091   1.969       .  S
O1083      C1093   1.273       .  A
O1084     Cu1091   2.009       .  S
O1084      C1094   1.277   1_545  A
O1085     Cu1091   2.020   1_565  S
O1085      C1095   1.278       .  A
O1086     Cu1091   2.024       .  S
O1086      C1096   1.281       .  A
O1087     Cu1092   2.005   1_545  S
O1087      C1096   1.277       .  A
O1088     Cu1092   2.018       .  S
O1088      C1095   1.280       .  A
O1089     Cu1092   2.014       .  S
O1089      C1094   1.277       .  A
O1090     Cu1092   1.983       .  S
O1090      C1093   1.276   1_565  A
Cu1091    Cu1092   2.371   1_545  S
C1093      C1214   1.460       .  S
C1097      C1098   1.549       .  S
C1097      C1103   1.539       .  S
C1097      C1101   1.536       .  S
C1097      C1204   1.540       .  S
C1098      H1105   1.085       .  S
C1098      C1099   1.369       .  D
C1099      C1124   1.482       .  S
C1099      C1100   1.541       .  S
C1100      C1104   1.546       .  S
C1100      C1102   1.553       .  S
C1100      H1106   1.111       .  S
C1101      H1107   1.086       .  S
C1101      C1102   1.367       .  D
C1103      H1108   1.085       .  S
C1103      C1104   1.358       .  D
C1104      C1267   1.489       .  S
C1109      C1110   1.550       .  S
C1109      C1115   1.531       .  S
C1109      C1113   1.536       .  S
C1109      C1197   1.541       .  S
C1110      H1117   1.079       .  S
C1110      C1111   1.369       .  D
C1111      C1141   1.480       .  S
C1111      C1112   1.540       .  S
C1112      C1116   1.546       .  S
C1112      C1114   1.552       .  S
C1112      H1118   1.111       .  S
C1113      H1119   1.086       .  S
C1113      C1114   1.366       .  D
C1115      H1120   1.088       .  S
C1115      C1116   1.357       .  D
C1116      C1247   1.483       .  S
N1121      N1122   1.326       .  A
N1121      C1125   1.352       .  A
N1122      C1123   1.347       .  A
N1122     Cu1128   2.086       .  S
C1123      C1124   1.381       .  A
C1123      H1126   1.081       .  S
C1124      C1125   1.388       .  A
C1125      H1127   1.081       .  S
Cu1128     N1131   2.084       .  S
Cu1129     N1139   2.118       .  S
Cu1130     N1132   2.059       .  S
Cu1130     N1138   2.059       .  S
N1131      C1135   1.348       .  A
N1132      C1133   1.343       .  A
C1133      C1134   1.379       .  A
C1133      H1136   1.081       .  S
C1135      H1137   1.080       .  S
N1138      N1139   1.323       .  A
N1138      C1142   1.342       .  A
N1139      C1140   1.355       .  A
C1140      C1141   1.393       .  A
C1140      H1143   1.082       .  S
C1141      C1142   1.377       .  A
C1142      H1144   1.082       .  S
C1145      C1146   1.527       .  S
C1145      C1151   1.528       .  S
C1145      C1149   1.533       .  S
C1145      C1172   1.505       .  S
C1146      H1153   1.087       .  S
C1146      C1147   1.361       .  D
C1147      C1148   1.545       .  S
C1148      C1152   1.552       .  S
C1148      C1150   1.553       .  S
C1148      H1154   1.107       .  S
C1149      H1155   1.084       .  S
C1149      C1150   1.369       .  D
C1150      C1237   1.497       .  S
C1151      H1156   1.085       .  S
C1151      C1152   1.368       .  D
C1152      C1207   1.500       .  S
C1157      C1158   1.538       .  S
C1157      C1163   1.545       .  S
C1157      C1161   1.545       .  S
C1157      C1194   1.542       .  S
C1158      H1165   1.087       .  S
C1158      C1159   1.362       .  D
C1159      C1227   1.487       .  S
C1159      C1160   1.539       .  S
C1160      C1164   1.527       .  S
C1160      C1162   1.543       .  S
C1160      H1166   1.111       .  S
C1161      H1167   1.086       .  S
C1161      C1162   1.369       .  D
C1163      H1168   1.078       .  S
C1163      C1164   1.362       .  D
C1164      C1189   1.464       .  S
N1169      N1170   1.321       .  A
N1169      C1173   1.345       .  A
N1169     Cu1177   2.069   1_556  S
N1170      C1171   1.341       .  A
N1170     Cu1176   2.064       .  S
C1171      C1172   1.382       .  A
C1171      H1174   1.082       .  S
C1172      C1173   1.387       .  A
C1173      H1175   1.081       .  S
Cu1176     N1179   2.064   1_556  S
Cu1178     N1186   2.073   1_565  S
N1179      N1180   1.321       .  A
N1179      C1183   1.344   1_554  A
C1181      H1184   1.080       .  S
C1182      C1183   1.379   1_554  A
C1183      H1185   1.080       .  S
N1186      N1187   1.323   1_545  A
N1186      C1190   1.341       .  A
N1187      C1188   1.346   1_565  A
C1188      C1189   1.379       .  A
C1188      H1191   1.081       .  S
C1189      C1190   1.380       .  A
C1190      H1192   1.082       .  S
C1193      C1194   1.411       .  A
C1193      C1198   1.397       .  A
C1193      F1200   1.358       .  S
C1194      C1195   1.419       .  A
C1195      C1196   1.401       .  A
C1195      F1202   1.352       .  S
C1196      C1197   1.413       .  A
C1196      F1201   1.352       .  S
C1197      C1198   1.414       .  A
C1198      F1199   1.359       .  S
C1203      C1204   1.418       .  A
C1203      C1208   1.400       .  A
C1203      F1210   1.357       .  S
C1204      C1205   1.410       .  A
C1205      C1206   1.402       .  A
C1205      F1212   1.357       .  S
C1206      C1207   1.413       .  A
C1206      F1211   1.358       .  S
C1207      C1208   1.407       .  A
C1208      F1209   1.356       .  S
C1213      C1214   1.404   1_565  A
C1213      C1218   1.388       .  A
C1213      F1220   1.358       .  S
C1214      C1215   1.406       .  A
C1215      C1216   1.388       .  A
C1215      F1222   1.358       .  S
C1216      C1217   1.403   1_655  A
C1216      F1221   1.358   1_655  S
C1217      C1218   1.406   1_445  A
C1218      F1219   1.359   1_655  S
C1223      C1224   1.408       .  A
C1223      C1228   1.400       .  A
C1223      F1230   1.358       .  S
C1224      C1225   1.406       .  A
C1225      C1226   1.408   1_655  A
C1225      F1232   1.357       .  S
C1226      C1227   1.407       .  A
C1226      F1231   1.357       .  S
C1227      C1228   1.404   1_455  A
C1228      F1229   1.358   1_655  S
C1233      C1234   1.404       .  A
C1233      C1238   1.396       .  A
C1233      F1240   1.359       .  S
C1234      C1235   1.405       .  A
C1235      C1236   1.409   1_655  A
C1235      F1242   1.357       .  S
C1236      C1237   1.411       .  A
C1236      F1241   1.356       .  S
C1237      C1238   1.410   1_455  A
C1238      F1239   1.358   1_655  S
C1243      C1244   1.412       .  A
C1243      C1248   1.396       .  A
C1243      F1250   1.358       .  S
C1244      C1245   1.410       .  A
C1245      C1246   1.410       .  A
C1245      F1252   1.357       .  S
C1246      C1247   1.407   1_655  A
C1246      F1251   1.357   1_655  S
C1247      C1248   1.402   1_455  A
C1248      F1249   1.359   1_655  S
C1253      C1254   1.402       .  A
C1253      C1258   1.394       .  A
C1253      F1260   1.359       .  S
C1254      C1255   1.401       .  A
C1255      C1256   1.409       .  A
C1255      F1262   1.358       .  S
C1256      C1257   1.422       .  A
C1256      F1261   1.352       .  S
C1257      C1258   1.416       .  A
C1258      F1259   1.359       .  S
C1263      C1264   1.407       .  A
C1263      C1268   1.409       .  A
C1263      F1270   1.358       .  S
C1264      C1265   1.404       .  A
C1265      C1266   1.401       .  A
C1265      F1272   1.358       .  S
C1266      C1267   1.407   1_655  A
C1266      F1271   1.358   1_655  S
C1267      C1268   1.408   1_455  A
C1268      F1269   1.357   1_655  S
C1273      C1274   1.416       .  A
C1273      C1278   1.403       .  A
C1273      F1280   1.352       .  S
C1274      C1275   1.411       .  A
C1275      C1276   1.392       .  A
C1275      F1282   1.359       .  S
C1276      C1277   1.411       .  A
C1276      F1281   1.359       .  S
C1277      C1278   1.414       .  A
C1278      F1279   1.352       .  S
C1283      C1284   1.404       .  A
C1283      C1288   1.385       .  A
C1283      F1290   1.359       .  S
C1284      C1285   1.403       .  A
C1285      C1286   1.392       .  A
C1285      F1292   1.358       .  S
C1286      C1287   1.405   1_655  A
C1286      F1291   1.358   1_655  S
C1287      C1288   1.401   1_455  A
C1288      F1289   1.359   1_655  S
C1293      C1294   1.412       .  A
C1293      C1298   1.401       .  A
C1293      F1300   1.354       .  S
C1294      C1295   1.412       .  A
C1295      C1296   1.395       .  A
C1295      F1302   1.359       .  S
C1296      C1297   1.410       .  A
C1296      F1301   1.359       .  S
C1297      C1298   1.414       .  A
C1298      F1299   1.354       .  S
C1303      C1304   1.413       .  A
C1303      C1308   1.397       .  A
C1303      F1310   1.357       .  S
C1304      C1305   1.416       .  A
C1305      C1306   1.400       .  A
C1305      F1312   1.356       .  S
C1306      C1307   1.413       .  A
C1306      F1311   1.357       .  S
C1307      C1308   1.413       .  A
C1308      F1309   1.357       .  S
C1313      C1314   1.403       .  A
C1313      C1318   1.392       .  A
C1313      F1320   1.358   1_565  S
C1315      C1316   1.387       .  A
C1315      F1322   1.358       .  S
C1316      F1321   1.358       .  S
C1317      C1318   1.407   1_554  A
C1318      F1319   1.358   1_565  S
C1323      C1324   1.403       .  A
C1323      C1328   1.407       .  A
C1323      F1330   1.357       .  S
C1324      C1325   1.400       .  A
C1325      C1326   1.398       .  A
C1325      F1332   1.358       .  S
C1326      C1327   1.416       .  A
C1326      F1331   1.357       .  S
C1327      C1328   1.413       .  A
C1328      F1329   1.356       .  S
C1333      C1334   1.406       .  A
C1333      C1338   1.404       .  A
C1333      F1340   1.358       .  S
C1334      C1335   1.406       .  A
C1335      C1336   1.407       .  A
C1335      F1342   1.357       .  S
C1336      C1337   1.406       .  A
C1336      F1341   1.357       .  S
C1337      C1338   1.408       .  A
C1338      F1339   1.358       .  S
C1343      C1344   1.407       .  A
C1343      C1348   1.400       .  A
C1343      F1350   1.358       .  S
C1344      C1345   1.407       .  A
C1345      C1346   1.409       .  A
C1345      F1352   1.357       .  S
C1346      C1347   1.407       .  A
C1346      F1351   1.357       .  S
C1347      C1348   1.404       .  A
C1348      F1349   1.358       .  S
C1353      C1354   1.400       .  A
C1353      C1358   1.394       .  A
C1353      F1360   1.359       .  S
C1354      C1355   1.401       .  A
C1355      C1356   1.408       .  A
C1355      F1362   1.358       .  S
C1356      C1357   1.421       .  A
C1356      F1361   1.352       .  S
C1357      C1358   1.417       .  A
C1358      F1359   1.359       .  S
C1363      C1364   1.406       .  A
C1363      C1368   1.408       .  A
C1363      F1370   1.357       .  S
C1364      C1365   1.407       .  A
C1365      C1366   1.401       .  A
C1365      F1372   1.358       .  S
C1366      C1367   1.405       .  A
C1366      F1371   1.358       .  S
C1367      C1368   1.406       .  A
C1368      F1369   1.357       .  S
C1373      C1374   1.415       .  A
C1373      C1378   1.404       .  A
C1373      F1380   1.353       .  S
C1374      C1375   1.412       .  A
C1375      C1376   1.395       .  A
C1375      F1382   1.358       .  S
C1376      C1377   1.410       .  A
C1376      F1381   1.358       .  S
C1377      C1378   1.415       .  A
C1378      F1379   1.354       .  S
C1383      C1388   1.388       .  A
C1383      F1390   1.358       .  S
C1384      C1385   1.403       .  A
C1385      C1386   1.387       .  A
C1385      F1392   1.359       .  S
C1386      C1387   1.402       .  A
C1386      F1391   1.359       .  S
C1388      F1389   1.358       .  S
