geometry optimzed in LAMMPS
_audit_creation_date              2020-12-01 
_audit_creation_method            'lammps2cif' 
_symmetry_space_group_name_H-M    'P1' 
_symmetry_Int_Tables_number       1 
_symmetry_cell_setting            triclinic 
loop_ 
_symmetry_equiv_pos_as_xyz 
  x,y,z 
_cell_length_a                    32.54653236 
_cell_length_b                    32.473813160755384 
_cell_length_c                    37.54960388990724 
_cell_angle_alpha                 89.96817297576231 
_cell_angle_beta                  89.95107791532827 
_cell_angle_gamma                 89.24497690475215 
loop_ 
_atom_site_label 
_atom_site_type_symbol 
_atom_site_fract_x 
_atom_site_fract_y 
_atom_site_fract_z 
_atom_site_charge 
N1          N  0.98765871  0.74789186  0.35650350    -0.02500
C2          C  0.98966567  0.70649408  0.35212321     0.00100
C3          C  0.98066149  0.68694874  0.05040371    -0.22800
C4          C  0.97292817  0.71745947  0.07515987    -0.23000
C5          C  0.97789541  0.75468303  0.05782124     0.00000
H6          H  0.98011788  0.65406382  0.05511346     0.13800
H7          H  0.96637460  0.71288775  0.10311281     0.13800
N8          N  0.01388742  0.21064147  0.06617177    -0.02500
C9          C  0.00792750  0.25132866  0.07271422     0.00100
C10         C  0.01493364  0.27370291  0.04193325    -0.22800
C11         C  0.02533655  0.24584263  0.01565101    -0.23000
C12         C  0.02406393  0.20732153  0.03113709     0.00000
H13         H  0.01314621  0.30685610  0.03905147     0.13800
H14         H  0.03263619  0.25286386  0.32138669     0.13800
N15         N  0.74222482  0.96987263  0.34216827    -0.02500
C16         C  0.78178127  0.95929853  0.33497933     0.00100
C17         C  0.79892828  0.93907944  0.03061196    -0.22800
C18         C  0.76856974  0.93636813  0.05612832    -0.23000
C19         C  0.73417322  0.95540930  0.04192968     0.00000
H20         H  0.83003744  0.92719697  0.03275873     0.13800
H21         H  0.77123673  0.92203841  0.08207219     0.13800
N22         N  0.28332339  0.96233971  0.05222481    -0.02500
C23         C  0.24284146  0.95908255  0.05965881     0.00100
C24         C  0.22017675  0.96431343  0.02876775    -0.22800
C25         C  0.24786670  0.97154322  0.00163240    -0.23000
C26         C  0.28641970  0.97010369  0.01690704     0.00000
H27         H  0.18703127  0.96504919  0.02657179     0.13800
H28         H  0.24061387  0.97807110  0.30740120     0.13800
N29         N  0.51859685  0.71029043  0.32980289    -0.02500
C30         C  0.51489360  0.75110628  0.32318927     0.00100
C31         C  0.51893178  0.77289797  0.02131365    -0.22800
C32         C  0.52625035  0.74437056  0.04789318    -0.23000
C33         C  0.52616702  0.70600068  0.03188413     0.00000
H34         H  0.51817664  0.80605627  0.02431805     0.13800
H35         H  0.53136773  0.75099656  0.07575376     0.13800
N36         N  0.49523735  0.25038894  0.04172814    -0.02500
C37         C  0.48995398  0.20981759  0.04786647     0.00100
C38         C  0.47540314  0.19098046  0.01744752    -0.22800
C39         C  0.47151360  0.22134200  0.99183714    -0.23000
C40         C  0.48350232  0.25776961  0.00764047     0.00000
H41         H  0.46776707  0.15882545  0.01439440     0.13800
H42         H  0.46059419  0.21720161  0.29819860     0.13800
N43         N  0.24090847  0.43977270  0.06445416    -0.02500
C44         C  0.28042171  0.42937530  0.07306025     0.00100
C45         C  0.29813005  0.40687356  0.04567146    -0.22800
C46         C  0.26907748  0.40380519  0.01927051    -0.23000
C47         C  0.23423203  0.42429328  0.03127363     0.00000
H48         H  0.32943172  0.39531144  0.04445836     0.13800
H49         H  0.27318843  0.38879717  0.32696327     0.13800
N50         N  0.78020521  0.48310252  0.35120134    -0.02500
C51         C  0.73984296  0.48064326  0.34312375     0.00100
C52         C  0.71654826  0.48922310  0.03966761    -0.22800
C53         C  0.74371215  0.49718818  0.06702345    -0.23000
C54         C  0.78279929  0.49351447  0.05272975     0.00000
H55         H  0.68333933  0.49032273  0.04129053     0.13800
H56         H  0.73574211  0.50459696  0.09425297     0.13800
Zn57       Zn  0.50385204  0.47591013  0.13838302     1.49700
Zn58       Zn  0.47787320  0.48430438  0.21937840     1.49400
Zn59       Zn  0.55685030  0.42678609  0.19708389     1.49100
Zn60       Zn  0.56451025  0.52172145  0.18773619     1.49500
O61         O  0.52531883  0.47699301  0.18623768    -1.83100
O62         O  0.44238116  0.47554287  0.13742780    -0.73800
O63         O  0.47738450  0.43777516  0.25590077    -0.73600
O64         O  0.55539977  0.38670277  0.15586666    -0.73100
O65         O  0.42211265  0.47966063  0.19373547    -0.73800
O66         O  0.51803072  0.42218557  0.11628997    -0.73400
O67         O  0.52897497  0.39780975  0.23682118    -0.74000
O68         O  0.61958762  0.50499104  0.20917664    -0.73400
O69         O  0.48310375  0.53986455  0.24467848    -0.74100
O70         O  0.61380960  0.43785635  0.21728716    -0.73500
O71         O  0.54275539  0.56085216  0.22272802    -0.74000
O72         O  0.56697242  0.55629965  0.14228906    -0.73900
O73         O  0.52041714  0.52495476  0.10955203    -0.73700
C74         C  0.41407572  0.47564762  0.16068374     0.78100
C75         C  0.49930713  0.40504578  0.25801670     0.78600
C76         C  0.53581915  0.38911553  0.12652945     0.77600
C77         C  0.63346486  0.47116646  0.22189703     0.77900
C78         C  0.51197089  0.56613457  0.24303067     0.79100
C79         C  0.54435679  0.55502949  0.11456065     0.78100
Zn80       Zn  0.51544536  0.96651584  0.24668617     1.49700
Zn81       Zn  0.50978164  0.94258664  0.16487516     1.49400
Zn82       Zn  0.46370684  0.02522342  0.19713902     1.49100
Zn83       Zn  0.55876680  0.02455008  0.19084688     1.49500
O84         O  0.51189506  0.98915719  0.19931901    -1.83100
O85         O  0.51438484  0.90546870  0.24603675    -0.73800
O86         O  0.45544587  0.94584737  0.13811891    -0.73600
O87         O  0.43035454  0.02472583  0.24253984    -0.73100
O88         O  0.51203597  0.88571908  0.18955166    -0.73800
O89         O  0.46657705  0.98144095  0.27633676    -0.73400
O90         O  0.42612780  0.00172441  0.16187399    -0.74000
O91         O  0.54280211  0.08069600  0.17171532    -0.73400
O92         O  0.55818782  0.94627928  0.13004738    -0.74100
O93         O  0.47516456  0.08184864  0.17688328    -0.73500
O94         O  0.59115826  0.00047125  0.15118907    -0.74000
O95         O  0.59810091  0.02550321  0.23248922    -0.73900
O96         O  0.56908133  0.97989296  0.26871749    -0.73700
C97         C  0.51310230  0.87731493  0.22272540     0.78100
C98         C  0.42544528  0.97141028  0.14060041     0.78600
C99         C  0.43435387  0.00302802  0.27064476     0.77600
C100        C  0.50823373  0.09813353  0.16579955     0.77900
C101        C  0.58836770  0.97104288  0.12906602     0.79100
C102        C  0.59900405  0.00260093  0.26003646     0.78100
Zn103      Zn  0.00171513  0.97772561  0.26008894     1.49700
Zn104      Zn  0.06303627  0.02127659  0.20813104     1.49400
Zn105      Zn  0.05295268  0.92563674  0.20250876     1.49100
Zn106      Zn  0.97508515  0.98405972  0.17850278     1.49500
O107        O  0.02267739  0.97718877  0.21175420    -1.83100
O108        O  0.02056115  0.02760170  0.28752231    -0.73800
O109        O  0.11793805  0.00188413  0.18712489    -0.73600
O110        O  0.04855339  0.88594600  0.24375947    -0.73100
O111        O  0.06667896  0.05723730  0.25273006    -0.73800
O112        O  0.01168783  0.92239510  0.28293858    -0.73400
O113        O  0.11116962  0.93422148  0.18460898    -0.74000
O114        O  0.97340515  0.93482426  0.14364612    -0.73400
O115        O  0.04161755  0.06058601  0.17264422    -0.74100
O116        O  0.02611684  0.89618584  0.16240414    -0.73500
O117        O  0.98112790  0.03960091  0.15222566    -0.74000
O118        O  0.91937400  0.98378999  0.20496850    -0.73900
O119        O  0.94054139  0.98244751  0.26109529    -0.73700
C120        C  0.04473044  0.05726519  0.28091249     0.78100
C121        C  0.13164329  0.96650770  0.17777313     0.78600
C122        C  0.02843812  0.88863639  0.27281168     0.77600
C123        C  0.99584317  0.90228342  0.14164482     0.77900
C124        C  0.01013619  0.06585010  0.15316077     0.79100
C125        C  0.91180624  0.98322680  0.23830823     0.78100
Zn126      Zn  0.96590204  0.51887846  0.20879123     1.49700
Zn127      Zn  0.06167079  0.51119993  0.21588838     1.49400
Zn128      Zn  0.00678910  0.43266785  0.23954312     1.49100
Zn129      Zn  0.01406153  0.46264865  0.15623007     1.49500
O130        O  0.01218992  0.48046084  0.20564607    -1.83100
O131        O  0.98102069  0.57442848  0.22845994    -0.73800
O132        O  0.09324469  0.48212561  0.25413956    -0.73600
O133        O  0.95366814  0.44016603  0.26934897    -0.73100
O134        O  0.04831881  0.56784465  0.23583403    -0.73800
O135        O  0.92869067  0.49772498  0.24505707    -0.73400
O136        O  0.05828918  0.42800680  0.27277443    -0.74000
O137        O  0.00662743  0.40220487  0.15543118    -0.73400
O138        O  0.10145815  0.51097641  0.17434955    -0.74100
O139        O  0.00111587  0.37860491  0.21092160    -0.73500
O140        O  0.06906352  0.47397535  0.13333087    -0.74000
O141        O  0.96597159  0.48276700  0.12684866    -0.73900
O142        O  0.93055313  0.52158360  0.16461746    -0.73700
C143        C  0.01483121  0.58794057  0.24053099     0.78100
C144        C  0.09015848  0.45071519  0.27418167     0.78600
C145        C  0.92595291  0.46835015  0.26710973     0.77600
C146        C  0.00132777  0.37283617  0.17724240     0.77900
C147        C  0.10086639  0.49247033  0.14444493     0.79100
C148        C  0.93384526  0.50363441  0.13460438     0.78100
C149        C  0.82203658  0.49822219  0.07280466     0.00800
C150        C  0.85283111  0.46802142  0.06864645    -0.11100
C151        C  0.89057712  0.47078311  0.08619502     0.03100
C152        C  0.89787094  0.50382077  0.10996027     0.00700
C153        C  0.86705305  0.53434321  0.11392757    -0.11000
C154        C  0.82957858  0.53194995  0.09551671     0.02900
H155        H  0.84707200  0.44139463  0.05225600     0.15900
H156        H  0.87191677  0.55982390  0.13194837     0.15900
C157        C  0.79962601  0.56464783  0.10037961     0.37600
C158        C  0.92004892  0.43782366  0.08025840     0.37500
N159        N  0.77570932  0.59091117  0.10447832    -0.42800
N160        N  0.94336806  0.41128780  0.07504424    -0.42800
C161        C  0.81440016  0.47930676  0.32722953     0.00800
C162        C  0.82694342  0.44025170  0.31500451    -0.11100
C163        C  0.86437514  0.43501971  0.29674512     0.03100
C164        C  0.88939103  0.46946132  0.29044354     0.00700
C165        C  0.87616970  0.50843873  0.30246613    -0.11000
C166        C  0.83900321  0.51357325  0.32036257     0.02900
H167        H  0.80802511  0.41404920  0.98728263     0.15900
H168        H  0.89477944  0.53530507  0.29732131     0.15900
C169        C  0.82626439  0.55440818  0.33123524     0.37600
C170        C  0.87563295  0.39461106  0.28378614     0.37500
N171        N  0.81597836  0.58718301  0.33979931    -0.42800
N172        N  0.88449787  0.36231773  0.93993005    -0.42800
C173        C  0.72217260  0.47488817  0.30706381     0.00800
C174        C  0.71705315  0.50930513  0.28498067    -0.11100
C175        C  0.69147390  0.50794656  0.25487500     0.03100
C176        C  0.67006960  0.47132712  0.24638228     0.00700
C177        C  0.67888260  0.43574689  0.26680941    -0.11000
C178        C  0.70432667  0.43742601  0.29700669     0.02900
H179        H  0.73105775  0.53814393  0.29255857     0.15900
H180        H  0.66360948  0.40710417  0.26083096     0.15900
C181        C  0.71006030  0.40091049  0.31849266     0.37600
C182        C  0.68613935  0.54550594  0.23472480     0.37500
N183        N  0.71492867  0.37179469  0.33584893    -0.42800
N184        N  0.68184373  0.57575826  0.21876994    -0.42800
C185        C  0.12594132  0.44122285  0.29817745     0.00800
C186        C  0.16473971  0.45548415  0.28745769    -0.11100
C187        C  0.19965024  0.45036445  0.30878253     0.03100
C188        C  0.19673944  0.43083238  0.00886292     0.00700
C189        C  0.15828193  0.41597100  0.01978866    -0.11000
C190        C  0.12308486  0.42068814  0.99802488     0.02900
H191        H  0.16801535  0.47093571  0.26204599     0.15900
H192        H  0.15581990  0.40038209  0.04519732     0.15900
C193        C  0.08457137  0.40490181  0.01080138     0.37600
C194        C  0.23802477  0.46667548  0.29594135     0.37500
N195        N  0.05382924  0.39200563  0.02120914    -0.42800
N196        N  0.26866516  0.47975098  0.28547709    -0.42800
C197        C  0.13999850  0.48533500  0.12554081     0.00800
C198        C  0.16505774  0.45342972  0.13874312    -0.11100
C199        C  0.19932202  0.43928695  0.11975034     0.03100
C200        C  0.20992417  0.45804048  0.08720569     0.00700
C201        C  0.18601848  0.49154917  0.07482842    -0.11000
C202        C  0.15090421  0.50504014  0.09353331     0.02900
H203        H  0.15633199  0.43775721  0.16310036     0.15900
H204        H  0.19395495  0.50601968  0.04976635     0.15900
C205        C  0.12648017  0.53849559  0.07917660     0.37600
C206        C  0.22046766  0.40290887  0.13259077     0.42700
N207        N  0.10732849  0.56552263  0.06741578    -0.42800
N208        N  0.23693372  0.37355502  0.14313585    -0.42800
C209        C  0.30495667  0.44341722  0.10434422     0.00800
C210        C  0.32733000  0.41353365  0.12363660    -0.11100
C211        C  0.36037788  0.42441141  0.14550844     0.03100
C212        C  0.37206378  0.46596244  0.14825246     0.00700
C213        C  0.34810266  0.49625498  0.13104146    -0.11000
C214        C  0.31451645  0.48535588  0.10945622     0.02900
H215        H  0.32090094  0.38112928  0.11947878     0.15900
H216        H  0.35742554  0.52820008  0.13237422     0.15900
C217        C  0.29339506  0.51732788  0.08974118     0.37600
C218        C  0.38483044  0.39204762  0.16181414     0.37500
N219        N  0.27650556  0.54299709  0.07389580    -0.42800
N220        N  0.40483491  0.36642752  0.17480360    -0.42800
C221        C  0.50563302  0.13497447  0.14169714     0.00800
C222        C  0.46640247  0.15033365  0.13218013    -0.11100
C223        C  0.46101331  0.17665166  0.10287260     0.03100
C224        C  0.49519242  0.18877292  0.08262979     0.00700
C225        C  0.53459962  0.17663125  0.09360237    -0.11000
C226        C  0.54023855  0.15014190  0.12283189     0.02900
H227        H  0.43937793  0.13982725  0.14624577     0.15900
H228        H  0.56100313  0.18606670  0.07806759     0.15900
C229        C  0.58181346  0.13738532  0.13113740     0.37600
C230        C  0.41991424  0.18956625  0.09310665     0.37500
N231        N  0.61518101  0.12714397  0.13760321    -0.42800
N232        N  0.38702603  0.20000710  0.08522411    -0.42800
C233        C  0.49078927  0.37352276  0.28510531     0.00800
C234        C  0.45500990  0.35020374  0.28237787    -0.11100
C235        C  0.45124315  0.31333388  0.96821665     0.03100
C236        C  0.48407380  0.29887077  0.98977955     0.00700
C237        C  0.51850450  0.32379689  0.32731560    -0.11000
C238        C  0.52165669  0.36127201  0.30922412     0.02900
H239        H  0.43109811  0.35976060  0.93069258     0.15900
H240        H  0.54386970  0.31354580  0.34377258     0.15900
C241        C  0.55684493  0.38690335  0.31565702     0.37600
C242        C  0.41314209  0.29130436  0.96556193     0.37500
N243        N  0.58453098  0.40801261  0.32104863    -0.42800
N244        N  0.38242144  0.27391108  0.96357602    -0.42800
C245        C  0.52739075  0.35154681  0.10606599     0.00800
C246        C  0.48647309  0.34596166  0.09542137    -0.11100
C247        C  0.47497652  0.31102237  0.07676688     0.03100
C248        C  0.50478730  0.28128206  0.06755595     0.00700
C249        C  0.54540766  0.28556647  0.07946300    -0.11000
C250        C  0.55688572  0.32042812  0.09899652     0.02900
H251        H  0.46313593  0.36893547  0.10202271     0.15900
H252        H  0.56840431  0.26274689  0.07192410     0.15900
C253        C  0.59912334  0.32455635  0.10988245     0.37600
C254        C  0.43250061  0.30647338  0.06663762     0.37500
N255        N  0.63299685  0.32786625  0.11865417    -0.42800
N256        N  0.39844600  0.30282661  0.05853347    -0.42800
C257        C  0.51200483  0.77120235  0.28776912     0.00800
C258        C  0.54863314  0.78189711  0.27048782    -0.11100
C259        C  0.54901375  0.81351212  0.24491821     0.03100
C260        C  0.51220167  0.83453670  0.23610981     0.00700
C261        C  0.47504219  0.82055479  0.25044426    -0.11000
C262        C  0.47470837  0.78917576  0.27616356     0.02900
H263        H  0.57748012  0.76840420  0.27946207     0.15900
H264        H  0.44665758  0.83687009  0.24414584     0.15900
C265        C  0.43621217  0.77858981  0.29268846     0.37600
C266        C  0.58798812  0.82693827  0.23101978     0.37500
N267        N  0.40531863  0.77010118  0.30589111    -0.42800
N268        N  0.61922596  0.83776482  0.21992346    -0.42800
C269        C  0.53362079  0.66611620  0.05081896     0.00800
C270        C  0.50557504  0.63419298  0.04655500    -0.11100
C271        C  0.51001930  0.59686555  0.06490456     0.03100
C272        C  0.54284097  0.59095795  0.08944707     0.00700
C273        C  0.57147473  0.62285276  0.09318482    -0.11000
C274        C  0.56722259  0.65996819  0.07411737     0.02900
H275        H  0.47877736  0.63895972  0.02995764     0.15900
H276        H  0.59681407  0.61928089  0.11169744     0.15900
C277        C  0.59768942  0.69137709  0.07902799     0.37600
C278        C  0.47876045  0.56642112  0.05901548     0.37500
N279        N  0.62189814  0.71677163  0.08289884    -0.42800
N280        N  0.45358073  0.54222099  0.05415787    -0.42800
C281        C  0.51643691  0.67745056  0.30449791     0.00800
C282        C  0.47809554  0.66096459  0.29591357    -0.11100
C283        C  0.47539135  0.62380540  0.27711044     0.03100
C284        C  0.51169023  0.60395958  0.26502524     0.00700
C285        C  0.54994338  0.62172773  0.27280004    -0.11000
C286        C  0.55247926  0.65779450  0.29265646     0.02900
H287        H  0.45040763  0.67597599  0.30589452     0.15900
H288        H  0.57828495  0.60689428  0.26402617     0.15900
C289        C  0.59236918  0.67375832  0.30143234     0.37600
C290        C  0.43530092  0.60657249  0.27136517     0.37500
N291        N  0.62440460  0.68646358  0.30846773    -0.42800
N292        N  0.40312190  0.59261628  0.26721107    -0.42800
C293        C  0.22406163  0.95776840  0.09567737     0.00800
C294        C  0.21979001  0.99446799  0.11502131    -0.11100
C295        C  0.19286988  0.99735649  0.14425841     0.03100
C296        C  0.16924368  0.96284226  0.15458552     0.00700
C297        C  0.17718440  0.92500377  0.13719969    -0.11000
C298        C  0.20388761  0.92240707  0.10786866     0.02900
H299        H  0.23540436  0.02177155  0.10579954     0.15900
H300        H  0.16024724  0.89781028  0.14472786     0.15900
C301        C  0.20838213  0.88364181  0.08935801     0.37600
C302        C  0.18877961  0.03680222  0.16169000     0.37500
N303        N  0.21206435  0.85259809  0.07449875    -0.42800
N304        N  0.18564140  0.06854033  0.17550422    -0.42800
C305        C  0.39878071  0.99788451  0.29487438     0.00800
C306        C  0.39261340  0.95844704  0.30934350    -0.11100
C307        C  0.35609986  0.94871105  0.32687678     0.03100
C308        C  0.32528820  0.97926347  0.99803771     0.00700
C309        C  0.33148222  0.01896324  0.98430469    -0.11000
C310        C  0.36790611  0.02837573  0.29943728     0.02900
H311        H  0.41532129  0.93422906  0.30501272     0.15900
H312        H  0.30778054  0.04239976  0.98771426     0.15900
C313        C  0.37267820  0.06978295  0.95234052     0.37600
C314        C  0.34963426  0.90644943  0.33720689     0.37500
N315        N  0.37685564  0.10272641  0.94125487    -0.42800
N316        N  0.34456917  0.87236423  0.34485980    -0.42800
C317        C  0.38858422  0.96731787  0.11819908     0.00800
C318        C  0.36967482  0.00369444  0.10573211    -0.11100
C319        C  0.33392418  0.00236116  0.08546624     0.03100
C320        C  0.31652107  0.96427481  0.07715575     0.00700
C321        C  0.33431593  0.92782888  0.09043688    -0.11000
C322        C  0.37027645  0.92904443  0.11097615     0.02900
H323        H  0.38302592  0.03333936  0.11165978     0.15900
H324        H  0.32044967  0.89856007  0.08417844     0.15900
C325        C  0.38672241  0.89111594  0.12554681     0.37600
C326        C  0.31523681  0.04040208  0.07342324     0.37500
N327        N  0.39989072  0.86087451  0.13754182    -0.42800
N328        N  0.29994416  0.07079903  0.06382939    -0.42800
C329        C  0.86937321  0.98013338  0.25223312     0.00800
C330        C  0.85214094  0.01382117  0.27062560    -0.11100
C331        C  0.81994403  0.00836270  0.29511447     0.03100
C332        C  0.80502080  0.96849028  0.30189238     0.00700
C333        C  0.81996958  0.93542222  0.28134024    -0.11000
C334        C  0.85156829  0.94104805  0.25638550     0.02900
H335        H  0.86606689  0.04386504  0.26801352     0.15900
H336        H  0.80887735  0.90463538  0.28653411     0.15900
C337        C  0.86809873  0.90558808  0.23780229     0.37600
C338        C  0.80594707  0.04359641  0.98228129     0.37500
N339        N  0.88154365  0.87741947  0.22270089    -0.42800
N340        N  0.79501914  0.07178725  0.99876032    -0.42800
C341        C  0.69426324  0.95989520  0.06065540     0.00800
C342        C  0.66978854  0.92523120  0.06658724    -0.11100
C343        C  0.63386121  0.92812405  0.08736312     0.03100
C344        C  0.62202197  0.96641187  0.10243025     0.00700
C345        C  0.64583317  0.00125905  0.09487195    -0.11000
C346        C  0.68180699  0.99818318  0.07471092     0.02900
H347        H  0.67946165  0.89565452  0.05587469     0.15900
H348        H  0.63729560  0.03099270  0.10605608     0.15900
C349        C  0.70718257  0.03411482  0.07131243     0.37600
C350        C  0.61146466  0.89098761  0.09475560     0.37500
N351        N  0.72766519  0.06284720  0.06896209    -0.42800
N352        N  0.59339684  0.86137404  0.10099487    -0.42800
C353        C  0.71079399  0.98015946  0.31685588     0.00800
C354        C  0.69532884  0.02068996  0.31471804    -0.11100
C355        C  0.65879225  0.02935719  0.29609737     0.03100
C356        C  0.63762213  0.99699674  0.27966965     0.00700
C357        C  0.65383015  0.95682015  0.28112551    -0.11000
C358        C  0.69012688  0.94829671  0.29939685     0.02900
H359        H  0.71077105  0.04521465  0.99545213     0.15900
H360        H  0.63779306  0.93188888  0.26819574     0.15900
C361        C  0.70464329  0.90618859  0.30162132     0.37600
C362        C  0.64198468  0.07068869  0.29639661     0.37500
N363        N  0.71626198  0.87242555  0.30347320    -0.42800
N364        N  0.62810389  0.10367842  0.29681784    -0.42800
C365        C  0.03047869  0.16802265  0.01129791     0.00800
C366        C  0.06726357  0.16108859  0.99249593    -0.11100
C367        C  0.07357664  0.12504196  0.97226625     0.03100
C368        C  0.04303074  0.09433607  0.30467137     0.00700
C369        C  0.00622644  0.10187808  0.32356228    -0.11000
C370        C  0.99946744  0.13853008  0.34243086     0.02900
H371        H  0.09097638  0.18429803  0.99322686     0.15900
H372        H  0.98127690  0.08009563  0.32184189     0.15900
C373        C  0.95878728  0.14702270  0.35618281     0.37600
C374        C  0.11129335  0.12112993  0.95224144     0.37500
N375        N  0.92599490  0.15418351  0.36661050    -0.42800
N376        N  0.14151028  0.11866468  0.93606072    -0.42800
C377        C  0.01321250  0.17717645  0.09127403     0.00800
C378        C  0.97625225  0.16586877  0.10770802    -0.11100
C379        C  0.97394105  0.12923948  0.12759835     0.03100
C380        C  0.00913029  0.10362600  0.13110359     0.00700
C381        C  0.04642570  0.11643991  0.11611166    -0.11000
C382        C  0.04871872  0.15293241  0.09671304     0.02900
H383        H  0.94908248  0.18508314  0.10412179     0.15900
H384        H  0.07406560  0.09784144  0.11963029     0.15900
C385        C  0.08803799  0.16561206  0.08306523     0.37600
C386        C  0.93592469  0.11955863  0.14534693     0.37500
N387        N  0.11947555  0.17610025  0.07215489    -0.42800
N388        N  0.90557533  0.11192265  0.15985891    -0.42800
C389        C  0.99806307  0.27116820  0.10742526     0.00800
C390        C  0.02763997  0.27116687  0.13472806    -0.11100
C391        C  0.02616099  0.30124066  0.16177860     0.03100
C392        C  0.99499438  0.33179614  0.16130161     0.00700
C393        C  0.96276866  0.32832000  0.13676015    -0.11000
C394        C  0.96398378  0.29833438  0.11004326     0.02900
H395        H  0.05389550  0.25028172  0.13307490     0.15900
H396        H  0.93841242  0.35152871  0.13645593     0.15900
C397        C  0.93158709  0.29826168  0.08377461     0.37600
C398        C  0.05894542  0.30293039  0.18755641     0.37500
N399        N  0.90560107  0.29828961  0.06275709    -0.42800
N400        N  0.08490660  0.30454280  0.20853024    -0.42800
C401        C  0.97878807  0.79548295  0.07619824     0.00800
C402        C  0.01309573  0.82064911  0.07131100    -0.11100
C403        C  0.01748041  0.85727719  0.09047696     0.03100
C404        C  0.98722775  0.86960175  0.11531811     0.00700
C405        C  0.95208330  0.84542100  0.11942659    -0.11000
C406        C  0.94776377  0.80846339  0.10030412     0.02900
H407        H  0.03768624  0.81078760  0.05376666     0.15900
H408        H  0.92909310  0.85421989  0.13900243     0.15900
C409        C  0.91178965  0.78394932  0.10663305     0.37600
C410        C  0.05402795  0.88119847  0.08490500     0.37500
N411        N  0.88307446  0.76420132  0.11193354    -0.42800
N412        N  0.08331763  0.90031100  0.08029019    -0.42800
C413        C  0.99640031  0.77925336  0.33059830     0.00800
C414        C  0.03635003  0.78273188  0.31686433    -0.11100
C415        C  0.04802192  0.81815224  0.29806389     0.03100
C416        C  0.01941581  0.85076375  0.29318406     0.00700
C417        C  0.97891371  0.84596241  0.30535190    -0.11000
C418        C  0.96720070  0.81047024  0.32345225     0.02900
H419        H  0.05890946  0.75879974  0.32257458     0.15900
H420        H  0.95607723  0.86985831  0.30028980     0.15900
C421        C  0.92499537  0.80665988  0.33467309     0.37600
C422        C  0.08990946  0.82123397  0.28587000     0.37500
N423        N  0.89107254  0.80358969  0.34343252    -0.42800
N424        N  0.12354608  0.82370022  0.27617080    -0.42800
C425        C  0.01391184  0.62524988  0.26392589     0.00800
C426        C  0.97868231  0.65101367  0.26378767    -0.11100
C427        C  0.97152151  0.67989073  0.29103271     0.03100
C428        C  0.00013965  0.68399400  0.31886465     0.00700
C429        C  0.03645503  0.66036552  0.31797773    -0.11000
C430        C  0.04368134  0.63127085  0.29100740     0.02900
H431        H  0.95530308  0.64682264  0.24359780     0.15900
H432        H  0.05824223  0.66298594  0.33970306     0.15900
C433        C  0.08003755  0.60548476  0.29411175     0.37600
C434        C  0.93278539  0.70201351  0.29178643     0.37500
N435        N  0.10897642  0.58458348  0.29665291    -0.42800
N436        N  0.90156444  0.71944870  0.29257285    -0.42800
N437        N  0.98803120  0.74786532  0.68985944    -0.02500
C438        C  0.99013883  0.70646587  0.68550098     0.00100
C439        C  0.98030559  0.68702880  0.38380269    -0.22800
C440        C  0.97252924  0.71756736  0.40852274    -0.23000
C441        C  0.97750143  0.75476937  0.39115295     0.00000
H442        H  0.97980453  0.65415019  0.38855290     0.13800
H443        H  0.96597667  0.71302973  0.43648021     0.13800
N444        N  0.01414068  0.21066568  0.39942139    -0.02500
C445        C  0.00824053  0.25135730  0.40596342     0.00100
C446        C  0.01525811  0.27372603  0.37518195    -0.22800
C447        C  0.02561265  0.24585250  0.34889654    -0.23000
C448        C  0.02429928  0.20733550  0.36438710     0.00000
H449        H  0.01349915  0.30688026  0.37230014     0.13800
H450        H  0.03260588  0.25288593  0.65472899     0.13800
N451        N  0.74222781  0.96986151  0.67562268    -0.02500
C452        C  0.78179993  0.95931591  0.66845155     0.00100
C453        C  0.79883331  0.93869745  0.36379644    -0.22800
C454        C  0.76847403  0.93600694  0.38931429    -0.23000
C455        C  0.73410731  0.95513124  0.37514126     0.00000
H456        H  0.82992917  0.92677610  0.36593277     0.13800
H457        H  0.77112421  0.92164644  0.41524670     0.13800
N458        N  0.28331757  0.96230196  0.38556117    -0.02500
C459        C  0.24284026  0.95900857  0.39299362     0.00100
C460        C  0.22017768  0.96414299  0.36208918    -0.22800
C461        C  0.24786781  0.97134491  0.33494645    -0.23000
C462        C  0.28641619  0.96998332  0.35023279     0.00000
H463        H  0.18703258  0.96481009  0.35988221     0.13800
H464        H  0.24068681  0.97811203  0.64076558     0.13800
N465        N  0.51838885  0.71027038  0.66309968    -0.02500
C466        C  0.51459611  0.75107552  0.65646589     0.00100
C467        C  0.51966007  0.77293071  0.35446882    -0.22800
C468        C  0.52690188  0.74440428  0.38106435    -0.23000
C469        C  0.52654080  0.70601477  0.36510051     0.00000
H470        H  0.51915372  0.80609584  0.35742777     0.13800
H471        H  0.53219455  0.75104452  0.40889716     0.13800
N472        N  0.49500611  0.25037180  0.37509784    -0.02500
C473        C  0.48968131  0.20981095  0.38125963     0.00100
C474        C  0.47505229  0.19097744  0.35086800    -0.22800
C475        C  0.47116232  0.22132934  0.32524833    -0.23000
C476        C  0.48323243  0.25774802  0.34101881     0.00000
H477        H  0.46738368  0.15882824  0.34783469     0.13800
H478        H  0.46100953  0.21721910  0.63141403     0.13800
N479        N  0.24096771  0.43962212  0.39775601    -0.02500
C480        C  0.28048167  0.42919211  0.40633445     0.00100
C481        C  0.29814500  0.40666443  0.37894043    -0.22800
C482        C  0.26906562  0.40361615  0.35255970    -0.23000
C483        C  0.23424998  0.42414043  0.36458183     0.00000
H484        H  0.32944045  0.39508803  0.37770313     0.13800
H485        H  0.27311134  0.38833008  0.66052999     0.13800
N486        N  0.78024240  0.48303292  0.68442582    -0.02500
C487        C  0.73989626  0.48061263  0.67628469     0.00100
C488        C  0.71647708  0.48910554  0.37309954    -0.22800
C489        C  0.74365308  0.49705107  0.40045262    -0.23000
C490        C  0.78273702  0.49329400  0.38616475     0.00000
H491        H  0.68326903  0.49028667  0.37471405     0.13800
H492        H  0.73569285  0.50452664  0.42767081     0.13800
Zn493      Zn  0.50396763  0.47594959  0.47160344     1.49700
Zn494      Zn  0.47796247  0.48426162  0.55259513     1.49400
Zn495      Zn  0.55697709  0.42680956  0.53027872     1.49100
Zn496      Zn  0.56456651  0.52176840  0.52102495     1.49500
O497        O  0.52542210  0.47701265  0.51946549    -1.83100
O498        O  0.44249411  0.47561770  0.47061929    -0.73800
O499        O  0.47755226  0.43777011  0.58913536    -0.73600
O500        O  0.55543833  0.38670753  0.48909173    -0.73100
O501        O  0.42223294  0.47948335  0.52694167    -0.73800
O502        O  0.51808511  0.42220843  0.44951852    -0.73400
O503        O  0.52917827  0.39785045  0.57005814    -0.74000
O504        O  0.61964515  0.50502510  0.54245345    -0.73400
O505        O  0.48306852  0.53983808  0.57789180    -0.74100
O506        O  0.61397569  0.43785100  0.55039049    -0.73500
O507        O  0.54275320  0.56085824  0.55603439    -0.74000
O508        O  0.56704275  0.55636220  0.47558874    -0.73900
O509        O  0.52059374  0.52496573  0.44276871    -0.73700
C510        C  0.41419625  0.47557886  0.49388066     0.78100
C511        C  0.49951591  0.40507128  0.59126171     0.78600
C512        C  0.53583754  0.38912380  0.45976664     0.77600
C513        C  0.63358980  0.47117251  0.55506477     0.77900
C514        C  0.51192936  0.56611837  0.57629808     0.79100
C515        C  0.54449297  0.55506345  0.44782122     0.78100
Zn516      Zn  0.51546559  0.96646549  0.58000060     1.49700
Zn517      Zn  0.50977964  0.94255371  0.49817788     1.49400
Zn518      Zn  0.46373047  0.02516877  0.53046124     1.49100
Zn519      Zn  0.55882303  0.02447046  0.52416088     1.49500
O520        O  0.51192326  0.98910763  0.53263374    -1.83100
O521        O  0.51430703  0.90542417  0.57933475    -0.73800
O522        O  0.45547675  0.94585953  0.47139304    -0.73600
O523        O  0.43038322  0.02469518  0.57586648    -0.73100
O524        O  0.51194118  0.88568813  0.52284533    -0.73800
O525        O  0.46662929  0.98144377  0.60967419    -0.73400
O526        O  0.42613715  0.00170193  0.49518507    -0.74000
O527        O  0.54284363  0.08061740  0.50500730    -0.73400
O528        O  0.55818998  0.94619989  0.46336304    -0.74100
O529        O  0.47520730  0.08177673  0.51021841    -0.73500
O530        O  0.59121442  0.00035983  0.48450126    -0.74000
O531        O  0.59815167  0.02541744  0.56583166    -0.73900
O532        O  0.56912061  0.97978655  0.60203268    -0.73700
C533        C  0.51297863  0.87727852  0.55601816     0.78100
C534        C  0.42547014  0.97141088  0.47388656     0.78600
C535        C  0.43440157  0.00302485  0.60398472     0.77600
C536        C  0.50826787  0.09805509  0.49911108     0.77900
C537        C  0.58839260  0.97093346  0.46237715     0.79100
C538        C  0.59904623  0.00250205  0.59337394     0.78100
Zn539      Zn  0.00177295  0.97773502  0.59341225     1.49700
Zn540      Zn  0.06307767  0.02127326  0.54142155     1.49400
Zn541      Zn  0.05288343  0.92564503  0.53575346     1.49100
Zn542      Zn  0.97504430  0.98415645  0.51184374     1.49500
O543        O  0.02267152  0.97721935  0.54505279    -1.83100
O544        O  0.02063274  0.02763520  0.62081309    -0.73800
O545        O  0.11798004  0.00181426  0.52045544    -0.73600
O546        O  0.04848652  0.88594207  0.57697738    -0.73100
O547        O  0.06673411  0.05727176  0.58600560    -0.73800
O548        O  0.01180564  0.92241065  0.61626913    -0.73400
O549        O  0.11110777  0.93416685  0.51787710    -0.74000
O550        O  0.97327523  0.93492345  0.47697363    -0.73400
O551        O  0.04170949  0.06057606  0.50590146    -0.74100
O552        O  0.02600107  0.89624917  0.49564539    -0.73500
O553        O  0.98114988  0.03969748  0.48555395    -0.74000
O554        O  0.91935445  0.98391405  0.53837552    -0.73900
O555        O  0.94059265  0.98240528  0.59448060    -0.73700
C556        C  0.04479439  0.05730346  0.61419356     0.78100
C557        C  0.13163932  0.96642626  0.51108640     0.78600
C558        C  0.02848694  0.88864019  0.60608664     0.77600
C559        C  0.99569678  0.90237387  0.47492554     0.77900
C560        C  0.01021414  0.06588996  0.48644288     0.79100
C561        C  0.91182703  0.98325213  0.57172284     0.78100
Zn562      Zn  0.96599314  0.51882787  0.54211132     1.49700
Zn563      Zn  0.06177680  0.51107698  0.54925131     1.49400
Zn564      Zn  0.00685627  0.43258997  0.57283921     1.49100
Zn565      Zn  0.01416136  0.46263104  0.48952617     1.49500
O566        O  0.01227939  0.48039702  0.53896063    -1.83100
O567        O  0.98113370  0.57438613  0.56178572    -0.73800
O568        O  0.09332037  0.48197626  0.58751843    -0.73600
O569        O  0.95374715  0.44007100  0.60263909    -0.73100
O570        O  0.04842253  0.56772687  0.56918183    -0.73800
O571        O  0.92880070  0.49767002  0.57839376    -0.73400
O572        O  0.05831847  0.42785976  0.60609048    -0.74000
O573        O  0.00682982  0.40218013  0.48871891    -0.73400
O574        O  0.10159303  0.51081682  0.50773456    -0.74100
O575        O  0.00120132  0.37856459  0.54419751    -0.73500
O576        O  0.06914653  0.47403643  0.46659752    -0.74000
O577        O  0.96599273  0.48265737  0.46017730    -0.73900
O578        O  0.93060085  0.52150274  0.49794356    -0.73700
C579        C  0.01495563  0.58786251  0.57386927     0.78100
C580        C  0.09019751  0.45054699  0.60753392     0.78600
C581        C  0.92605212  0.46827493  0.60042553     0.77600
C582        C  0.00149789  0.37280737  0.51051916     0.77900
C583        C  0.10098157  0.49242874  0.47777555     0.79100
C584        C  0.93386381  0.50351851  0.46794193     0.78100
C585        C  0.82198798  0.49801867  0.40622018     0.00800
C586        C  0.85276961  0.46779983  0.40208736    -0.11100
C587        C  0.89053710  0.47058985  0.41960177     0.03100
C588        C  0.89785901  0.50366404  0.44332370     0.00700
C589        C  0.86705472  0.53420643  0.44726060    -0.11000
C590        C  0.82956995  0.53179864  0.42886346     0.02900
H591        H  0.84699141  0.44115023  0.38572881     0.15900
H592        H  0.87194641  0.55972670  0.46523310     0.15900
C593        C  0.79966396  0.56455681  0.43363779     0.37600
C594        C  0.92001852  0.43764309  0.41365227     0.37500
N595        N  0.77578819  0.59087509  0.43765167    -0.42800
N596        N  0.94334822  0.41112213  0.40841746    -0.42800
C597        C  0.81448376  0.47923091  0.66050429     0.00800
C598        C  0.82700015  0.44018372  0.64824086    -0.11100
C599        C  0.86443537  0.43495003  0.62998781     0.03100
C600        C  0.88949727  0.46937556  0.62376167     0.00700
C601        C  0.87631440  0.50834132  0.63583805    -0.11000
C602        C  0.83912833  0.51348388  0.65370026     0.02900
H603        H  0.80803087  0.41381071  0.32074888     0.15900
H604        H  0.89495681  0.53519653  0.63074065     0.15900
C605        C  0.82639338  0.55431917  0.66457399     0.37600
C606        C  0.87563206  0.39456946  0.61692451     0.37500
N607        N  0.81610290  0.58709424  0.67313317    -0.42800
N608        N  0.88450902  0.36216069  0.27336439    -0.42800
C609        C  0.72229805  0.47484938  0.64020221     0.00800
C610        C  0.71721974  0.50926050  0.61810506    -0.11100
C611        C  0.69165815  0.50790358  0.58798891     0.03100
C612        C  0.67022345  0.47130032  0.57951209     0.00700
C613        C  0.67902185  0.43571527  0.59993662    -0.11000
C614        C  0.70445514  0.43738888  0.63013923     0.02900
H615        H  0.73123555  0.53809430  0.62568127     0.15900
H616        H  0.66373222  0.40708040  0.59396163     0.15900
C617        C  0.71016552  0.40087721  0.65163480     0.37600
C618        C  0.68637424  0.54544333  0.56780234     0.37500
N619        N  0.71501789  0.37176772  0.66900210    -0.42800
N620        N  0.68211627  0.57567495  0.55181139    -0.42800
C621        C  0.12595342  0.44099355  0.63153482     0.00800
C622        C  0.16480536  0.45503520  0.62074781    -0.11100
C623        C  0.19970112  0.44988780  0.64208681     0.03100
C624        C  0.19675516  0.43073063  0.34218525     0.00700
C625        C  0.15829492  0.41587659  0.35310709    -0.11000
C626        C  0.12309172  0.42064460  0.33135999     0.02900
H627        H  0.16812900  0.47034070  0.59527443     0.15900
H628        H  0.15583513  0.40025649  0.37850152     0.15900
C629        C  0.08457351  0.40487203  0.34413730     0.37600
C630        C  0.23813945  0.46596821  0.62916626     0.37500
N631        N  0.05382473  0.39199104  0.35454426    -0.42800
N632        N  0.26883244  0.47885303  0.61863614    -0.42800
C633        C  0.14011835  0.48530289  0.45886686     0.00800
C634        C  0.16524481  0.45348268  0.47212925    -0.11100
C635        C  0.19948968  0.43930136  0.45312706     0.03100
C636        C  0.21002318  0.45795188  0.42051808     0.00700
C637        C  0.18607086  0.49140542  0.40809483    -0.11000
C638        C  0.15095585  0.50490570  0.42679407     0.02900
H639        H  0.15657257  0.43788328  0.49653656     0.15900
H640        H  0.19395888  0.50581102  0.38299292     0.15900
C641        C  0.12645773  0.53826192  0.41236056     0.37600
C642        C  0.22067016  0.40297419  0.46603226     0.42700
N643        N  0.10724512  0.56520587  0.40053228    -0.42800
N644        N  0.23715761  0.37366041  0.47663559    -0.42800
C645        C  0.30507480  0.44328024  0.43756530     0.00800
C646        C  0.32742569  0.41342399  0.45690882    -0.11100
C647        C  0.36047458  0.42432871  0.47877066     0.03100
C648        C  0.37219629  0.46587734  0.48143397     0.00700
C649        C  0.34827939  0.49614297  0.46414489    -0.11000
C650        C  0.31468660  0.48522009  0.44258126     0.02900
H651        H  0.32096615  0.38101537  0.45281252     0.15900
H652        H  0.35763671  0.52808180  0.46541009     0.15900
C653        C  0.29361212  0.51715625  0.42278641     0.37600
C654        C  0.38488198  0.39198481  0.49515541     0.37500
N655        N  0.27676052  0.54279298  0.40687265    -0.42800
N656        N  0.40484187  0.36637324  0.50820812    -0.42800
C657        C  0.50563113  0.13489882  0.47501491     0.00800
C658        C  0.46638547  0.15033309  0.46563018    -0.11100
C659        C  0.46091457  0.17667750  0.43635141     0.03100
C660        C  0.49502849  0.18875681  0.41600705     0.00700
C661        C  0.53446239  0.17653166  0.42684375    -0.11000
C662        C  0.54018139  0.15000532  0.45603759     0.02900
H663        H  0.43940262  0.13986860  0.47978018     0.15900
H664        H  0.56081492  0.18592379  0.41122343     0.15900
C665        C  0.58176568  0.13713070  0.46417609     0.37600
C666        C  0.41979306  0.18965799  0.42671946     0.37500
N667        N  0.61513846  0.12678963  0.47050713    -0.42800
N668        N  0.38688425  0.20014793  0.41894835    -0.42800
C669        C  0.49103161  0.37355503  0.61835751     0.00800
C670        C  0.45526448  0.35021896  0.61563656    -0.11100
C671        C  0.45105025  0.31335427  0.30158560     0.03100
C672        C  0.48387189  0.29883334  0.32313066     0.00700
C673        C  0.51878288  0.32385228  0.66056681    -0.11000
C674        C  0.52191363  0.36132508  0.64246952     0.02900
H675        H  0.43095347  0.35982264  0.26407890     0.15900
H676        H  0.54415207  0.31361620  0.67702724     0.15900
C677        C  0.55709571  0.38697121  0.64888405     0.37600
C678        C  0.41290875  0.29139046  0.29895430     0.37500
N679        N  0.58477809  0.40809099  0.65425891    -0.42800
N680        N  0.38215766  0.27404725  0.29698929    -0.42800
C681        C  0.52734203  0.35154947  0.43933590     0.00800
C682        C  0.48641044  0.34601429  0.42871237    -0.11100
C683        C  0.47485200  0.31106971  0.41009658     0.03100
C684        C  0.50461444  0.28127184  0.40090286     0.00700
C685        C  0.54524665  0.28550656  0.41279530    -0.11000
C686        C  0.55678544  0.32037472  0.43229211     0.02900
H687        H  0.46311070  0.36903194  0.43530026     0.15900
H688        H  0.56820598  0.26264219  0.40527236     0.15900
C689        C  0.59903117  0.32445077  0.44317168     0.37600
C690        C  0.43236403  0.30657867  0.39998233     0.37500
N691        N  0.63290841  0.32772661  0.45194342    -0.42800
N692        N  0.39830054  0.30298035  0.39188780    -0.42800
C693        C  0.51170937  0.77115257  0.62103626     0.00800
C694        C  0.54833914  0.78175091  0.60370806    -0.11100
C695        C  0.54875976  0.81337371  0.57814443     0.03100
C696        C  0.51198865  0.83450220  0.56939439     0.00700
C697        C  0.47481493  0.82061532  0.58377021    -0.11000
C698        C  0.47444031  0.78922499  0.60947631     0.02900
H699        H  0.57716691  0.76818190  0.61264477     0.15900
H700        H  0.44646151  0.83700676  0.57751027     0.15900
C701        C  0.43593755  0.77871024  0.62602534     0.37600
C702        C  0.58774301  0.82670685  0.56419484     0.37500
N703        N  0.40503922  0.77027123  0.63924440    -0.42800
N704        N  0.61898203  0.83746904  0.55305235    -0.42800
C705        C  0.53392636  0.66612353  0.38403837     0.00800
C706        C  0.50572933  0.63431546  0.37989151    -0.11100
C707        C  0.51008870  0.59700176  0.39827496     0.03100
C708        C  0.54300579  0.59098170  0.42270225     0.00700
C709        C  0.57179345  0.62275367  0.42631433    -0.11000
C710        C  0.56761118  0.65986169  0.40722643     0.02900
H711        H  0.47888292  0.63917676  0.36336956     0.15900
H712        H  0.59720625  0.61908803  0.44473903     0.15900
C713        C  0.59824069  0.69114059  0.41199279     0.37600
C714        C  0.47863097  0.56671443  0.39257760     0.37500
N715        N  0.62257932  0.71643378  0.41574476    -0.42800
N716        N  0.45328977  0.54264133  0.38788167    -0.42800
C717        C  0.51627861  0.67740719  0.63781321     0.00800
C718        C  0.47795197  0.66092679  0.62916936    -0.11100
C719        C  0.47527948  0.62377459  0.61035017     0.03100
C720        C  0.51160089  0.60392519  0.59831766     0.00700
C721        C  0.54984047  0.62167579  0.60616993    -0.11000
C722        C  0.55234185  0.65773855  0.62603500     0.02900
H723        H  0.45024550  0.67594567  0.63910473     0.15900
H724        H  0.57819725  0.60683637  0.59744229     0.15900
C725        C  0.59221816  0.67369197  0.63487016     0.37600
C726        C  0.43519550  0.60656182  0.60452514     0.37500
N727        N  0.62424651  0.68638374  0.64194811    -0.42800
N728        N  0.40301637  0.59263011  0.60030888    -0.42800
C729        C  0.22405866  0.95766244  0.42901005     0.00800
C730        C  0.21988060  0.99432349  0.44842351    -0.11100
C731        C  0.19296256  0.99720448  0.47766336     0.03100
C732        C  0.16925220  0.96272358  0.48792192     0.00700
C733        C  0.17711249  0.92490679  0.47047668    -0.11000
C734        C  0.20380500  0.92231937  0.44113987     0.02900
H735        H  0.23556093  0.02161039  0.43925333     0.15900
H736        H  0.16011307  0.89773531  0.47795629     0.15900
C737        C  0.20820457  0.88358993  0.42255758     0.37600
C738        C  0.18895700  0.03661294  0.49517066     0.37500
N739        N  0.21181010  0.85257754  0.40763715    -0.42800
N740        N  0.18587918  0.06831802  0.50905013    -0.42800
C741        C  0.39884206  0.99789426  0.62823265     0.00800
C742        C  0.39268522  0.95846202  0.64271533    -0.11100
C743        C  0.35617537  0.94872344  0.66025298     0.03100
C744        C  0.32528965  0.97908272  0.33135369     0.00700
C745        C  0.33156615  0.01879115  0.31767657    -0.11000
C746        C  0.36796462  0.02838297  0.63279591     0.02900
H747        H  0.41539575  0.93424611  0.63838657     0.15900
H748        H  0.30791952  0.04227473  0.32112908     0.15900
C749        C  0.37288619  0.06958994  0.28581431     0.37600
C750        C  0.34971712  0.90646106  0.67058306     0.37500
N751        N  0.37715877  0.10255355  0.27480415    -0.42800
N752        N  0.34465892  0.87237413  0.67823357    -0.42800
C753        C  0.38861460  0.96731615  0.45148157     0.00800
C754        C  0.36969849  0.00368779  0.43901298    -0.11100
C755        C  0.33393719  0.00234461  0.41876079     0.03100
C756        C  0.31652270  0.96425381  0.41048103     0.00700
C757        C  0.33433634  0.92781338  0.42375184    -0.11000
C758        C  0.37031584  0.92903746  0.44426283     0.02900
H759        H  0.38305407  0.03333432  0.44492724     0.15900
H760        H  0.32047386  0.89854074  0.41750005     0.15900
C761        C  0.38680531  0.89110719  0.45879404     0.37600
C762        C  0.31525864  0.04037859  0.40669097     0.37500
N763        N  0.40001695  0.86086415  0.47075105    -0.42800
N764        N  0.29997792  0.07077090  0.39707215    -0.42800
C765        C  0.86940876  0.98009592  0.58568349     0.00800
C766        C  0.85206540  0.01380541  0.60397168    -0.11100
C767        C  0.81985899  0.00834812  0.62845789     0.03100
C768        C  0.80504914  0.96845587  0.63535194     0.00700
C769        C  0.82012641  0.93534934  0.61491346    -0.11000
C770        C  0.85172273  0.94097182  0.58995528     0.02900
H771        H  0.86589821  0.04388279  0.60127168     0.15900
H772        H  0.80912575  0.90454771  0.62019317     0.15900
C773        C  0.86835500  0.90549006  0.57146918     0.37600
C774        C  0.80606529  0.04330098  0.31582461     0.37500
N775        N  0.88187952  0.87730715  0.55643968    -0.42800
N776        N  0.79520316  0.07141971  0.33242606    -0.42800
C777        C  0.69421374  0.95967386  0.39388488     0.00800
C778        C  0.66968248  0.92504789  0.39980465    -0.11100
C779        C  0.63377848  0.92798083  0.42060742     0.03100
C780        C  0.62202817  0.96626898  0.43572610     0.00700
C781        C  0.64589167  0.00108146  0.42817793    -0.11000
C782        C  0.68183513  0.99796781  0.40798006     0.02900
H783        H  0.67929083  0.89546786  0.38905676     0.15900
H784        H  0.63741567  0.03081700  0.43939128     0.15900
C785        C  0.70725366  0.03386755  0.40457818     0.37600
C786        C  0.61130317  0.89088126  0.42795672     0.37500
N787        N  0.72776000  0.06258241  0.40222531    -0.42800
N788        N  0.59316851  0.86129850  0.43415738    -0.42800
C789        C  0.71079054  0.98011821  0.65030374     0.00800
C790        C  0.69529401  0.02063670  0.64815789    -0.11100
C791        C  0.65877523  0.02928298  0.62950310     0.03100
C792        C  0.63764776  0.99691359  0.61304506     0.00700
C793        C  0.65386977  0.95674265  0.61453261    -0.11000
C794        C  0.69014997  0.94823978  0.63284107     0.02900
H795        H  0.71075342  0.04501123  0.32879216     0.15900
H796        H  0.63785779  0.93179980  0.60159606     0.15900
C797        C  0.70467896  0.90613795  0.63509258     0.37600
C798        C  0.64193852  0.07060277  0.62980239     0.37500
N799        N  0.71630658  0.87237940  0.63696526    -0.42800
N800        N  0.62803692  0.10358382  0.63022768    -0.42800
C801        C  0.03065119  0.16803077  0.34455758     0.00800
C802        C  0.06745938  0.16100559  0.32581787    -0.11100
C803        C  0.07372875  0.12493843  0.30561110     0.03100
C804        C  0.04309269  0.09437725  0.63795417     0.00700
C805        C  0.00630023  0.10188862  0.65687067    -0.11000
C806        C  0.99953360  0.13852424  0.67576102     0.02900
H807        H  0.09122743  0.18415664  0.32658356     0.15900
H808        H  0.98136236  0.08009209  0.65515771     0.15900
C809        C  0.95885908  0.14697815  0.68954053     0.37600
C810        C  0.11148554  0.12091853  0.28565808     0.37500
N811        N  0.92606986  0.15410613  0.69999109    -0.42800
N812        N  0.14173835  0.11836740  0.26953649    -0.42800
C813        C  0.01341857  0.17720110  0.42452270     0.00800
C814        C  0.97642826  0.16590212  0.44090839    -0.11100
C815        C  0.97407269  0.12927564  0.46079844     0.03100
C816        C  0.00925428  0.10366235  0.46437009     0.00700
C817        C  0.04657770  0.11646592  0.44941799    -0.11000
C818        C  0.04890830  0.15294614  0.43000300     0.02900
H819        H  0.94926799  0.18511928  0.43728012     0.15900
H820        H  0.07420888  0.09786396  0.45297228     0.15900
C821        C  0.08824503  0.16559323  0.41636836     0.37600
C822        C  0.93600586  0.11958679  0.47846031     0.37500
N823        N  0.11969609  0.17605150  0.40546472    -0.42800
N824        N  0.90561067  0.11193963  0.49289480    -0.42800
C825        C  0.99837952  0.27119015  0.44066999     0.00800
C826        C  0.02798166  0.27123428  0.46795006    -0.11100
C827        C  0.02646425  0.30128925  0.49501088     0.03100
C828        C  0.99522821  0.33177186  0.49456887     0.00700
C829        C  0.96299443  0.32825356  0.47004213    -0.11000
C830        C  0.96425408  0.29829172  0.44330877     0.02900
H831        H  0.05427671  0.25040206  0.46627152     0.15900
H832        H  0.93859487  0.35141669  0.46976140     0.15900
C833        C  0.93185160  0.29817801  0.41704635     0.37600
C834        C  0.05927498  0.30304755  0.52076043     0.37500
N835        N  0.90586283  0.29817043  0.39603192    -0.42800
N836        N  0.08525608  0.30472087  0.54171147    -0.42800
C837        C  0.97845398  0.79557797  0.40951051     0.00800
C838        C  0.01282321  0.82066164  0.40463977    -0.11100
C839        C  0.01726848  0.85729400  0.42378404     0.03100
C840        C  0.98702055  0.86970462  0.44859953     0.00700
C841        C  0.95181847  0.84560180  0.45269699    -0.11000
C842        C  0.94743708  0.80863851  0.43359140     0.02900
H843        H  0.03741639  0.81072889  0.38712906     0.15900
H844        H  0.92883253  0.85445978  0.47225702     0.15900
C845        C  0.91141626  0.78419321  0.43992243     0.37600
C846        C  0.05387513  0.88112519  0.41821328     0.37500
N847        N  0.88266376  0.76450093  0.44522794    -0.42800
N848        N  0.08321601  0.90015685  0.41359038    -0.42800
C849        C  0.99665888  0.77923470  0.66393027     0.00800
C850        C  0.03654748  0.78270858  0.65006359    -0.11100
C851        C  0.04814487  0.81813255  0.63123470     0.03100
C852        C  0.01953426  0.85076548  0.62647829     0.00700
C853        C  0.97908614  0.84597445  0.63878134    -0.11000
C854        C  0.96743657  0.81046636  0.65689131     0.02900
H855        H  0.05912417  0.75876425  0.65568299     0.15900
H856        H  0.95623874  0.86988578  0.63381033     0.15900
C857        C  0.92527349  0.80665607  0.66823146     0.37600
C858        C  0.08996875  0.82118725  0.61886983     0.37500
N859        N  0.89138391  0.80358812  0.67708806    -0.42800
N860        N  0.12355183  0.82363174  0.60902690    -0.42800
C861        C  0.01408291  0.62518004  0.59726508     0.00800
C862        C  0.97882204  0.65090435  0.59723603    -0.11100
C863        C  0.97175886  0.67980222  0.62448523     0.03100
C864        C  0.00049683  0.68395831  0.65221729     0.00700
C865        C  0.03683217  0.66036761  0.65122006    -0.11000
C866        C  0.04397234  0.63126599  0.62423795     0.02900
H867        H  0.95535456  0.64667474  0.57713102     0.15900
H868        H  0.05871667  0.66303166  0.67286670     0.15900
C869        C  0.08039977  0.60556114  0.62721130     0.37600
C870        C  0.93301315  0.70190293  0.62535433     0.37500
N871        N  0.10939823  0.58472567  0.62964167    -0.42800
N872        N  0.90179145  0.71933025  0.62624246    -0.42800
N873        N  0.98801846  0.74784418  0.02315977    -0.02500
C874        C  0.99000203  0.70645338  0.01873984     0.00100
C875        C  0.98092427  0.68700037  0.71721328    -0.22800
C876        C  0.97313871  0.71753784  0.74193131    -0.23000
C877        C  0.97795804  0.75473998  0.72452763     0.00000
H878        H  0.98050669  0.65412300  0.72198106     0.13800
H879        H  0.96666554  0.71300564  0.76990352     0.13800
N880        N  0.01415811  0.21066437  0.73276145    -0.02500
C881        C  0.00820171  0.25134925  0.73930470     0.00100
C882        C  0.01519614  0.27372614  0.70852366    -0.22800
C883        C  0.02559125  0.24586467  0.68223875    -0.23000
C884        C  0.02432596  0.20734395  0.69772700     0.00000
H885        H  0.01340230  0.30687898  0.70564272     0.13800
H886        H  0.03236930  0.25286590  0.98814536     0.13800
N887        N  0.74226977  0.97012050  0.00894236    -0.02500
C888        C  0.78184841  0.95961274  0.00176988     0.00100
C889        C  0.79886147  0.93877585  0.69729800    -0.22800
C890        C  0.76850089  0.93609953  0.72281518    -0.23000
C891        C  0.73411888  0.95516615  0.70861430     0.00000
H892        H  0.82996708  0.92688626  0.69945512     0.13800
H893        H  0.77116130  0.92178839  0.74876741     0.13800
N894        N  0.28337258  0.96229180  0.71892571    -0.02500
C895        C  0.24289018  0.95902902  0.72635477     0.00100
C896        C  0.22023573  0.96418277  0.69544850    -0.22800
C897        C  0.24793421  0.97136690  0.66830878    -0.23000
C898        C  0.28648054  0.96997959  0.68359804     0.00000
H899        H  0.18709108  0.96488794  0.69324049     0.13800
H900        H  0.24060972  0.97836058  0.97410417     0.13800
N901        N  0.51834306  0.71028719  0.99656554    -0.02500
C902        C  0.51441351  0.75109565  0.98999286     0.00100
C903        C  0.51924703  0.77292784  0.68774473    -0.22800
C904        C  0.52650650  0.74443194  0.71436122    -0.23000
C905        C  0.52626767  0.70603147  0.69841194     0.00000
H906        H  0.51864610  0.80609430  0.69069188     0.13800
H907        H  0.53171809  0.75109926  0.74220083     0.13800
N908        N  0.49528879  0.25042133  0.70834874    -0.02500
C909        C  0.48998659  0.20985747  0.71450609     0.00100
C910        C  0.47542100  0.19100685  0.68409857    -0.22800
C911        C  0.47154256  0.22135372  0.65847363    -0.23000
C912        C  0.48355618  0.25778295  0.67425862     0.00000
H913        H  0.46777510  0.15885242  0.68106075     0.13800
H914        H  0.46098451  0.21721778  0.96477528     0.13800
N915        N  0.24091742  0.43949681  0.73114950    -0.02500
C916        C  0.28041614  0.42905547  0.73977250     0.00100
C917        C  0.29806361  0.40638806  0.71245680    -0.22800
C918        C  0.26899348  0.40326576  0.68607641    -0.23000
C919        C  0.23419808  0.42389050  0.69801774     0.00000
H920        H  0.32934319  0.39476069  0.71126857     0.13800
H921        H  0.27323327  0.38898525  0.99367836     0.13800
N922        N  0.78028250  0.48335933  0.01775691    -0.02500
C923        C  0.73992407  0.48083478  0.00968316     0.00100
C924        C  0.71647264  0.48910048  0.70622147    -0.22800
C925        C  0.74359666  0.49702608  0.73361727    -0.23000
C926        C  0.78270623  0.49322892  0.71939104     0.00000
H927        H  0.68326186  0.49030971  0.70778197     0.13800
H928        H  0.73558625  0.50451631  0.76082167     0.13800
Zn929      Zn  0.50386261  0.47598587  0.80501205     1.49700
Zn930      Zn  0.47785341  0.48430708  0.88601652     1.49400
Zn931      Zn  0.55687384  0.42685928  0.86370224     1.49100
Zn932      Zn  0.56444685  0.52183483  0.85443170     1.49500
O933        O  0.52531161  0.47706093  0.85287906    -1.83100
O934        O  0.44238822  0.47565795  0.80403325    -0.73800
O935        O  0.47743258  0.43779758  0.92254705    -0.73600
O936        O  0.55544370  0.38677206  0.82247786    -0.73100
O937        O  0.42212402  0.47955451  0.86035461    -0.73800
O938        O  0.51801684  0.42223744  0.78293333    -0.73400
O939        O  0.52903474  0.39785894  0.90344926    -0.74000
O940        O  0.61954557  0.50511806  0.87585741    -0.73400
O941        O  0.48297046  0.53987241  0.91133772    -0.74100
O942        O  0.61383006  0.43796222  0.88389250    -0.73500
O943        O  0.54264325  0.56090008  0.88946536    -0.74000
O944        O  0.56686600  0.55646175  0.80900035    -0.73900
O945        O  0.52046186  0.52501438  0.77617008    -0.73700
C946        C  0.41408834  0.47564249  0.82729337     0.78100
C947        C  0.49937718  0.40508409  0.92465849     0.78600
C948        C  0.53583468  0.38917430  0.79315403     0.77600
C949        C  0.63345937  0.47128285  0.88853115     0.77900
C950        C  0.51183269  0.56615158  0.90974515     0.79100
C951        C  0.54432343  0.55514173  0.78122808     0.78100
Zn952      Zn  0.51539927  0.96668927  0.91345309     1.49700
Zn953      Zn  0.50978789  0.94264076  0.83167105     1.49400
Zn954      Zn  0.46371679  0.02534430  0.86380662     1.49100
Zn955      Zn  0.55879573  0.02461685  0.85757470     1.49500
O956        O  0.51189356  0.98926418  0.86605952    -1.83100
O957        O  0.51409983  0.90563835  0.91288635    -0.73800
O958        O  0.45549544  0.94591584  0.80485031    -0.73600
O959        O  0.43030898  0.02491451  0.90917828    -0.73100
O960        O  0.51192398  0.88580492  0.85641797    -0.73800
O961        O  0.46658915  0.98180540  0.94309647    -0.73400
O962        O  0.42616784  0.00183020  0.82852804    -0.74000
O963        O  0.54286673  0.08076728  0.83840744    -0.73400
O964        O  0.55822411  0.94624268  0.79687542    -0.74100
O965        O  0.47522209  0.08193350  0.84351819    -0.73500
O966        O  0.59118861  0.00047910  0.81793486    -0.74000
O967        O  0.59811636  0.02556422  0.89923332    -0.73900
O968        O  0.56908615  0.97995518  0.93545621    -0.73700
C969        C  0.51282564  0.87744910  0.88960500     0.78100
C970        C  0.42550093  0.97149251  0.80727988     0.78600
C971        C  0.43433583  0.00332390  0.93734125     0.77600
C972        C  0.50830538  0.09820447  0.83245290     0.77900
C973        C  0.58840179  0.97100568  0.79585494     0.79100
C974        C  0.59901678  0.00265489  0.92677760     0.78100
Zn975      Zn  0.00172748  0.97772686  0.92673897     1.49700
Zn976      Zn  0.06304837  0.02132039  0.87480730     1.49400
Zn977      Zn  0.05292524  0.92569445  0.86910399     1.49100
Zn978      Zn  0.97506825  0.98417303  0.84515351     1.49500
O979        O  0.02266877  0.97724586  0.87839594    -1.83100
O980        O  0.02054137  0.02761001  0.95418821    -0.73800
O981        O  0.11796441  0.00190616  0.85382927    -0.73600
O982        O  0.04852436  0.88596389  0.91031665    -0.73100
O983        O  0.06664535  0.05729041  0.91941363    -0.73800
O984        O  0.01174371  0.92238702  0.94957064    -0.73400
O985        O  0.11114798  0.93425522  0.85123093    -0.74000
O986        O  0.97334672  0.93494678  0.81027766    -0.73400
O987        O  0.04168065  0.06063145  0.83929802    -0.74100
O988        O  0.02608767  0.89630847  0.82897459    -0.73500
O989        O  0.98117513  0.03970242  0.81887027    -0.74000
O990        O  0.91935523  0.98396754  0.87163835    -0.73900
O991        O  0.94055449  0.98241896  0.92775378    -0.73700
C992        C  0.04468808  0.05729690  0.94759186     0.78100
C993        C  0.13165012  0.96653419  0.84444172     0.78600
C994        C  0.02847295  0.88863430  0.93940195     0.77600
C995        C  0.99579824  0.90241748  0.80823635     0.77900
C996        C  0.01021243  0.06591954  0.81980291     0.79100
C997        C  0.91180614  0.98330797  0.90498108     0.78100
Zn998      Zn  0.96596240  0.51887966  0.87534091     1.49700
Zn999      Zn  0.06170833  0.51116496  0.88249103     1.49400
Zn1000     Zn  0.00683225  0.43266514  0.90614308     1.49100
Zn1001     Zn  0.01411968  0.46262002  0.82280472     1.49500
O1002       O  0.01224098  0.48043954  0.87222356    -1.83100
O1003       O  0.98107310  0.57445782  0.89495281    -0.73800
O1004       O  0.09325352  0.48210916  0.92076940    -0.73600
O1005       O  0.95372672  0.44021192  0.93594895    -0.73100
O1006       O  0.04834799  0.56782285  0.90240514    -0.73800
O1007       O  0.92879616  0.49779115  0.91165635    -0.73400
O1008       O  0.05830410  0.42798765  0.93939801    -0.74000
O1009       O  0.00685895  0.40214933  0.82204612    -0.73400
O1010       O  0.10150448  0.51089436  0.84096657    -0.74100
O1011       O  0.00118654  0.37859234  0.87754064    -0.73500
O1012       O  0.06907086  0.47409250  0.79983444    -0.74000
O1013       O  0.96590279  0.48256906  0.79347894    -0.73900
O1014       O  0.93054556  0.52150327  0.83120051    -0.73700
C1015       C  0.01487419  0.58795580  0.90705612     0.78100
C1016       C  0.09016529  0.45070272  0.94081548     0.78600
C1017       C  0.92604629  0.46843088  0.93372011     0.77600
C1018       C  0.00151784  0.37279589  0.84386590     0.77900
C1019       C  0.10089633  0.49250653  0.81100737     0.79100
C1020       C  0.93378423  0.50345434  0.80122813     0.78100
C1021       C  0.82191903  0.49792490  0.73949982     0.00800
C1022       C  0.85267044  0.46766661  0.73542316    -0.11100
C1023       C  0.89042294  0.47044461  0.75296012     0.03100
C1024       C  0.89776743  0.50356393  0.77662808     0.00700
C1025       C  0.86698422  0.53413553  0.78052181    -0.11000
C1026       C  0.82950627  0.53172684  0.76211599     0.02900
H1027       H  0.84688032  0.44100296  0.71908154     0.15900
H1028       H  0.87188935  0.55968332  0.79846274     0.15900
C1029       C  0.79961581  0.56450801  0.76684756     0.37600
C1030       C  0.91986446  0.43744292  0.74709312     0.37500
N1031       N  0.77575038  0.59084264  0.77082791    -0.42800
N1032       N  0.94316469  0.41087740  0.74193006    -0.42800
C1033       C  0.81448914  0.47953106  0.99379974     0.00800
C1034       C  0.82698365  0.44046403  0.98156455    -0.11100
C1035       C  0.86442607  0.43518409  0.96333278     0.03100
C1036       C  0.88949972  0.46958808  0.95706470     0.00700
C1037       C  0.87633406  0.50857845  0.96909946    -0.11000
C1038       C  0.83915674  0.51376172  0.98697072     0.02900
H1039       H  0.80804889  0.41375447  0.65392554     0.15900
H1040       H  0.89499087  0.53541695  0.96397456     0.15900
C1041       C  0.82646799  0.55461010  0.99784761     0.37600
C1042       C  0.87564207  0.39476835  0.95036346     0.37500
N1043       N  0.81622020  0.58739592  0.00641340    -0.42800
N1044       N  0.88445792  0.36214705  0.60640774    -0.42800
C1045       C  0.72225084  0.47502836  0.97363121     0.00800
C1046       C  0.71719060  0.50940085  0.95148562    -0.11100
C1047       C  0.69157515  0.50802431  0.92140238     0.03100
C1048       C  0.67008321  0.47143271  0.91299446     0.00700
C1049       C  0.67884011  0.43588393  0.93347925    -0.11000
C1050       C  0.70431407  0.43758207  0.96365537     0.02900
H1051       H  0.73126340  0.53822750  0.95900087     0.15900
H1052       H  0.66349832  0.40726056  0.92756622     0.15900
C1053       C  0.70998979  0.40110797  0.98520521     0.37600
C1054       C  0.68630468  0.54553765  0.90117752     0.37500
N1055       N  0.71481492  0.37202813  0.00261485    -0.42800
N1056       N  0.68206093  0.57575270  0.88516066    -0.42800
C1057       C  0.12593909  0.44122580  0.96482344     0.00800
C1058       C  0.16473565  0.45547882  0.95409584    -0.11100
C1059       C  0.19963797  0.45041073  0.97543586     0.03100
C1060       C  0.19673153  0.43045631  0.67557557     0.00700
C1061       C  0.15821350  0.41580041  0.68655470    -0.11000
C1062       C  0.12302645  0.42059110  0.66479161     0.02900
H1063       H  0.16801487  0.47089170  0.92866680     0.15900
H1064       H  0.15569182  0.40032816  0.71201189     0.15900
C1065       C  0.08444212  0.40504231  0.67763098     0.37600
C1066       C  0.23800399  0.46672701  0.96258210     0.37500
N1067       N  0.05363933  0.39234038  0.68808730    -0.42800
N1068       N  0.26863302  0.47981090  0.95210117    -0.42800
C1069       C  0.14004398  0.48536513  0.79212275     0.00800
C1070       C  0.16519354  0.45362150  0.80548371    -0.11100
C1071       C  0.19944803  0.43938708  0.78652843     0.03100
C1072       C  0.20997345  0.45791193  0.75386257     0.00700
C1073       C  0.18600836  0.49130977  0.74134401    -0.11000
C1074       C  0.15087673  0.50485616  0.75999702     0.02900
H1075       H  0.15652783  0.43811134  0.82993589     0.15900
H1076       H  0.19389537  0.50562685  0.71620388     0.15900
C1077       C  0.12636833  0.53814903  0.74546828     0.37600
C1078       C  0.22064274  0.40312674  0.79955452     0.42700
N1079       N  0.10715435  0.56504475  0.73356038    -0.42800
N1080       N  0.23713626  0.37386958  0.81026632    -0.42800
C1081       C  0.30500596  0.44322608  0.77097879     0.00800
C1082       C  0.32734053  0.41341752  0.79039060    -0.11100
C1083       C  0.36036574  0.42437499  0.81225727     0.03100
C1084       C  0.37209058  0.46592753  0.81484882     0.00700
C1085       C  0.34819153  0.49615283  0.79748689    -0.11000
C1086       C  0.31461172  0.48517863  0.77592635     0.02900
H1087       H  0.32088347  0.38099918  0.78635155     0.15900
H1088       H  0.35755014  0.52809352  0.79869831     0.15900
C1089       C  0.29353992  0.51706827  0.75607342     0.37600
C1090       C  0.38475604  0.39207148  0.82871940     0.37500
N1091       N  0.27668617  0.54266642  0.74011519    -0.42800
N1092       N  0.40470683  0.36649635  0.84183490    -0.42800
C1093       C  0.50572569  0.13503257  0.80833481     0.00800
C1094       C  0.46650439  0.15047662  0.79888599    -0.11100
C1095       C  0.46110188  0.17679814  0.76958242     0.03100
C1096       C  0.49525873  0.18882679  0.74926987     0.00700
C1097       C  0.53466661  0.17660045  0.76017161    -0.11000
C1098       C  0.54031915  0.15011144  0.78939886     0.02900
H1099       H  0.43949131  0.14004219  0.81300915     0.15900
H1100       H  0.56105289  0.18597212  0.74458425     0.15900
C1101       C  0.58188624  0.13725556  0.79762263     0.37600
C1102       C  0.42000921  0.18982184  0.75990025     0.37500
N1103       N  0.61524757  0.12693533  0.80402233    -0.42800
N1104       N  0.38712565  0.20035393  0.75209022    -0.42800
C1105       C  0.49089019  0.37356668  0.95175592     0.00800
C1106       C  0.45515428  0.35018705  0.94900922    -0.11100
C1107       C  0.45133206  0.31336691  0.63483987     0.03100
C1108       C  0.48416627  0.29886795  0.65637936     0.00700
C1109       C  0.51865213  0.32390267  0.99399566    -0.11000
C1110       C  0.52175322  0.36138196  0.97590230     0.02900
H1111       H  0.43119884  0.35982432  0.59734112     0.15900
H1112       H  0.54401961  0.31369963  0.01047193     0.15900
C1113       C  0.55688593  0.38708198  0.98235618     0.37600
C1114       C  0.41320514  0.29137828  0.63220866     0.37500
N1115       N  0.58452597  0.40824562  0.98776474    -0.42800
N1116       N  0.38246303  0.27401976  0.63024167    -0.42800
C1117       C  0.52741911  0.35160224  0.77268252     0.00800
C1118       C  0.48650848  0.34601799  0.76201543    -0.11100
C1119       C  0.47502128  0.31107771  0.74335679     0.03100
C1120       C  0.50483384  0.28133137  0.73416409     0.00700
C1121       C  0.54544641  0.28561392  0.74608958    -0.11000
C1122       C  0.55691564  0.32047729  0.76562700     0.02900
H1123       H  0.46316639  0.36899147  0.76860617     0.15900
H1124       H  0.56844306  0.26278456  0.73856980     0.15900
C1125       C  0.59914583  0.32459213  0.77653808     0.37600
C1126       C  0.43255013  0.30652859  0.73321246     0.37500
N1127       N  0.63301478  0.32788392  0.78532878    -0.42800
N1128       N  0.39849933  0.30288089  0.72509664    -0.42800
C1129       C  0.51139662  0.77124745  0.95459888     0.00800
C1130       C  0.54795602  0.78160255  0.93703899    -0.11100
C1131       C  0.54838593  0.81327224  0.91150927     0.03100
C1132       C  0.51169077  0.83469141  0.90303291     0.00700
C1133       C  0.47454472  0.82106190  0.91765103    -0.11000
C1134       C  0.47416337  0.78962866  0.94331308     0.02900
H1135       H  0.57676211  0.76780105  0.94576622     0.15900
H1136       H  0.44625222  0.83766434  0.91159402     0.15900
C1137       C  0.43572309  0.77935690  0.96009140     0.37600
C1138       C  0.58734340  0.82632705  0.89730550     0.37500
N1139       N  0.40488017  0.77110627  0.97350005    -0.42800
N1140       N  0.61856699  0.83685776  0.88595988    -0.42800
C1141       C  0.53367612  0.66616510  0.71738479     0.00800
C1142       C  0.50553230  0.63431250  0.71322270    -0.11100
C1143       C  0.50990900  0.59702227  0.73164172     0.03100
C1144       C  0.54280288  0.59106059  0.75610439     0.00700
C1145       C  0.57153416  0.62288228  0.75973554    -0.11000
C1146       C  0.56732423  0.65997429  0.74062591     0.02900
H1147       H  0.47871090  0.63912085  0.69665792     0.15900
H1148       H  0.59692288  0.61926843  0.77819191     0.15900
C1149       C  0.59788623  0.69131316  0.74542511     0.37600
C1150       C  0.47848623  0.56669940  0.72594332     0.37500
N1151       N  0.62216731  0.71665695  0.74920255    -0.42800
N1152       N  0.45316828  0.54260182  0.72124752    -0.42800
C1153       C  0.51622434  0.67745245  0.97125045     0.00800
C1154       C  0.47789255  0.66096994  0.96262313    -0.11100
C1155       C  0.47520953  0.62378999  0.94384558     0.03100
C1156       C  0.51152040  0.60395256  0.93177563     0.00700
C1157       C  0.54976511  0.62170840  0.93960418    -0.11000
C1158       C  0.55228027  0.65776418  0.95947943     0.02900
H1159       H  0.45019383  0.67598231  0.97258107     0.15900
H1160       H  0.57811652  0.60686563  0.93086707     0.15900
C1161       C  0.59216223  0.67366837  0.96836326     0.37600
C1162       C  0.43513143  0.60650571  0.93815438     0.37500
N1163       N  0.62419281  0.68631610  0.97549412    -0.42800
N1164       N  0.40295938  0.59250863  0.93406506    -0.42800
C1165       C  0.22409902  0.95775443  0.76237072     0.00800
C1166       C  0.21977865  0.99448373  0.78166466    -0.11100
C1167       C  0.19284334  0.99739574  0.81088959     0.03100
C1168       C  0.16926304  0.96286893  0.82126667     0.00700
C1169       C  0.17725442  0.92500710  0.80393284    -0.11000
C1170       C  0.20395827  0.92239188  0.77460235     0.02900
H1171       H  0.23535736  0.02179050  0.77240520     0.15900
H1172       H  0.16035011  0.89780586  0.81149623     0.15900
C1173       C  0.20847124  0.88360859  0.75612218     0.37600
C1174       C  0.18866482  0.03688431  0.82823481     0.37500
N1175       N  0.21216326  0.85255444  0.74128069    -0.42800
N1176       N  0.18544446  0.06865737  0.84197656    -0.42800
C1177       C  0.39875751  0.99816924  0.96156233     0.00800
C1178       C  0.39266696  0.95874348  0.97608084    -0.11100
C1179       C  0.35616346  0.94895080  0.99360078     0.03100
C1180       C  0.32535864  0.97908901  0.66472620     0.00700
C1181       C  0.33162883  0.01879698  0.65104315    -0.11000
C1182       C  0.36780525  0.02859515  0.96605584     0.02900
H1183       H  0.41542660  0.93456488  0.97178792     0.15900
H1184       H  0.30797916  0.04227776  0.65449441     0.15900
C1185       C  0.37293810  0.06959601  0.61916776     0.37600
C1186       C  0.34977345  0.90667787  0.00393313     0.37500
N1187       N  0.37720288  0.10256059  0.60815709    -0.42800
N1188       N  0.34477735  0.87257951  0.01157885    -0.42800
C1189       C  0.38865385  0.96737141  0.78486409     0.00800
C1190       C  0.36971530  0.00373109  0.77239042    -0.11100
C1191       C  0.33395251  0.00236519  0.75214152     0.03100
C1192       C  0.31656998  0.96426295  0.74385246     0.00700
C1193       C  0.33440408  0.92783397  0.75712688    -0.11000
C1194       C  0.37037202  0.92908222  0.77765270     0.02900
H1195       H  0.38304770  0.03338810  0.77830573     0.15900
H1196       H  0.32055932  0.89855248  0.75087630     0.15900
C1197       C  0.38685133  0.89116886  0.79222454     0.37600
C1198       C  0.31523099  0.04038770  0.74009318     0.37500
N1199       N  0.40005018  0.86094177  0.80422174    -0.42800
N1200       N  0.29990994  0.07076916  0.73049575    -0.42800
C1201       C  0.86937777  0.98022668  0.91892305     0.00800
C1202       C  0.85209107  0.01397394  0.93719863    -0.11100
C1203       C  0.81990478  0.00857599  0.96171357     0.03100
C1204       C  0.80505766  0.96870663  0.96864282     0.00700
C1205       C  0.82006195  0.93556842  0.94820490    -0.11000
C1206       C  0.85164059  0.94113168  0.92322149     0.02900
H1207       H  0.86596284  0.04403015  0.93447406     0.15900
H1208       H  0.80902557  0.90478569  0.95350901     0.15900
C1209       C  0.86821003  0.90561614  0.90474313     0.37600
C1210       C  0.80583760  0.04333553  0.64903528     0.37500
N1211       N  0.88168355  0.87740459  0.88972030    -0.42800
N1212       N  0.79485757  0.07149860  0.66552430    -0.42800
C1213       C  0.69422655  0.95971488  0.72736057     0.00800
C1214       C  0.66970404  0.92508780  0.73330536    -0.11100
C1215       C  0.63380568  0.92802720  0.75411576     0.03100
C1216       C  0.62204924  0.96632380  0.76921532     0.00700
C1217       C  0.64591119  0.00113387  0.76165122    -0.11000
C1218       C  0.68185075  0.99801308  0.74144846     0.02900
H1219       H  0.67931522  0.89550231  0.72257100     0.15900
H1220       H  0.63743566  0.03087580  0.77285226     0.15900
C1221       C  0.70726636  0.03391280  0.73802915     0.37600
C1222       C  0.61134120  0.89092738  0.76148983     0.37500
N1223       N  0.72777055  0.06262764  0.73566133    -0.42800
N1224       N  0.59321499  0.86134506  0.76771118    -0.42800
C1225       C  0.71082007  0.98033622  0.98362604     0.00800
C1226       C  0.69534841  0.02085889  0.98142063    -0.11100
C1227       C  0.65880269  0.02947720  0.96279796     0.03100
C1228       C  0.63762615  0.99707712  0.94643435     0.00700
C1229       C  0.65382395  0.95690031  0.94797792    -0.11000
C1230       C  0.69012993  0.94842421  0.96625468     0.02900
H1231       H  0.71068075  0.04496748  0.66224979     0.15900
H1232       H  0.63777561  0.93193436  0.93510931     0.15900
C1233       C  0.70463089  0.90631839  0.96858504     0.37600
C1234       C  0.64198371  0.07080496  0.96303930     0.37500
N1235       N  0.71623720  0.87255823  0.97053064    -0.42800
N1236       N  0.62808609  0.10378849  0.96341475    -0.42800
C1237       C  0.03069857  0.16804507  0.67788559     0.00800
C1238       C  0.06749544  0.16105363  0.65911750    -0.11100
C1239       C  0.07377121  0.12500158  0.63888741     0.03100
C1240       C  0.04295290  0.09436105  0.97136679     0.00700
C1241       C  0.00617366  0.10181084  0.99032128    -0.11000
C1242       C  0.99936425  0.13844412  0.00920748     0.02900
H1243       H  0.09124831  0.18422067  0.65987776     0.15900
H1244       H  0.98127240  0.07996986  0.98863648     0.15900
C1245       C  0.95868698  0.14684023  0.02300537     0.37600
C1246       C  0.11151286  0.12102319  0.61890686     0.37500
N1247       N  0.92589432  0.15392557  0.03346833    -0.42800
N1248       N  0.14175597  0.11851408  0.60276718    -0.42800
C1249       C  0.01343430  0.17719829  0.75786003     0.00800
C1250       C  0.97645006  0.16593041  0.77427363    -0.11100
C1251       C  0.97409062  0.12931755  0.79417978     0.03100
C1252       C  0.00925795  0.10368197  0.79772708     0.00700
C1253       C  0.04657744  0.11645460  0.78275159    -0.11000
C1254       C  0.04891643  0.15292896  0.76333148     0.02900
H1255       H  0.94929935  0.18516522  0.77066111     0.15900
H1256       H  0.07420006  0.09783747  0.78629946     0.15900
C1257       C  0.08825932  0.16556683  0.74970516     0.37600
C1258       C  0.93604456  0.11967506  0.81189632     0.37500
N1259       N  0.11972068  0.17601632  0.73881771    -0.42800
N1260       N  0.90566871  0.11207039  0.82637930    -0.42800
C1261       C  0.99835453  0.27117277  0.77402189     0.00800
C1262       C  0.02797024  0.27120939  0.80129129    -0.11100
C1263       C  0.02647087  0.30125953  0.82835845     0.03100
C1264       C  0.99523629  0.33174571  0.82793657     0.00700
C1265       C  0.96298153  0.32822085  0.80343079    -0.11000
C1266       C  0.96422640  0.29826807  0.77668776     0.02900
H1267       H  0.05426210  0.25037468  0.79959935     0.15900
H1268       H  0.93857568  0.35137739  0.80317070     0.15900
C1269       C  0.93180076  0.29815822  0.75044716     0.37600
C1270       C  0.05928838  0.30299251  0.85410190     0.37500
N1271       N  0.90578867  0.29816017  0.72945426    -0.42800
N1272       N  0.08527876  0.30462920  0.87504683    -0.42800
C1273       C  0.97880839  0.79556969  0.74285547     0.00800
C1274       C  0.01308592  0.82076675  0.73793355    -0.11100
C1275       C  0.01743546  0.85742575  0.75706101     0.03100
C1276       C  0.98717779  0.86974888  0.78189954     0.00700
C1277       C  0.95205665  0.84554023  0.78603278    -0.11000
C1278       C  0.94777417  0.80855078  0.76695017     0.02900
H1279       H  0.03768266  0.81090586  0.72039493     0.15900
H1280       H  0.92906589  0.85433533  0.80560936     0.15900
C1281       C  0.91183737  0.78399663  0.77332014     0.37600
C1282       C  0.05396113  0.88137217  0.75146201     0.37500
N1283       N  0.88315189  0.76421841  0.77865638    -0.42800
N1284       N  0.08323523  0.90050079  0.74682287    -0.42800
C1285       C  0.99666863  0.77922615  0.99725064     0.00800
C1286       C  0.03657053  0.78272391  0.98342011    -0.11100
C1287       C  0.04815819  0.81814310  0.96457942     0.03100
C1288       C  0.01952470  0.85074930  0.95978286     0.00700
C1289       C  0.97906394  0.84592666  0.97204824    -0.11000
C1290       C  0.96742498  0.81041772  0.99016274     0.02900
H1291       H  0.05915699  0.75879896  0.98906774     0.15900
H1292       H  0.95619951  0.86981041  0.96704143     0.15900
C1293       C  0.92524541  0.80654680  0.00143772     0.37600
C1294       C  0.08998950  0.82121341  0.95223711     0.37500
N1295       N  0.89134348  0.80341837  0.01024018    -0.42800
N1296       N  0.12357935  0.82366065  0.94241216    -0.42800
C1297       C  0.01395284  0.62529168  0.93043355     0.00800
C1298       C  0.97854981  0.65082121  0.93054110    -0.11100
C1299       C  0.97146165  0.67967174  0.95781890     0.03100
C1300       C  0.00032441  0.68400188  0.98542718     0.00700
C1301       C  0.03679403  0.66063633  0.98428357    -0.11000
C1302       C  0.04395592  0.63156570  0.95727912     0.02900
H1303       H  0.95499640  0.64645919  0.91053469     0.15900
H1304       H  0.05877854  0.66344165  0.00583859     0.15900
C1305       C  0.08055589  0.60608961  0.96010360     0.37600
C1306       C  0.93259560  0.70154893  0.95885090     0.37500
N1307       N  0.10969535  0.58543722  0.96242246    -0.42800
N1308       N  0.90128339  0.71879939  0.95988012    -0.42800
loop_ 
_geom_bond_atom_site_label_1 
_geom_bond_atom_site_label_2 
_geom_bond_distance 
_geom_bond_site_symmetry_2 
_ccdc_geom_bond_type 
N1            C2   1.355       .  A
N1          C441   1.360       .  A
N1          C413   1.439       .  S
C2          C428   1.484   1_655  S
C2          C439   1.382       .  A
C3            C4   1.380       .  A
C3          C874   1.382       .  A
C3            H6   1.083       .  S
C4            C5   1.384       .  A
C4            H7   1.081       .  S
C5          N873   1.360       .  A
C5          C401   1.495       .  S
N8           C12   1.360       .  A
N8            C9   1.355       .  A
N8          C377   1.439       .  S
C9          C389   1.487   1_455  S
C9           C10   1.385       .  A
C10          C11   1.378       .  A
C10          H13   1.083       .  S
C11          C12   1.380       .  A
C11         H886   1.083   1_554  S
C12         C365   1.490       .  S
H14         C447   1.083       .  S
N15          C16   1.355       .  A
N15         C455   1.354       .  A
N15         C353   1.433       .  S
C16         C332   1.486       .  S
C16         C453   1.385       .  A
C17          C18   1.379       .  A
C17         C888   1.385       .  A
C17          H20   1.082       .  S
C18          C19   1.379       .  A
C18          H21   1.082       .  S
C19         N887   1.354       .  A
C19         C341   1.482       .  S
N22          C26   1.354       .  A
N22          C23   1.352       .  A
N22         C320   1.432       .  S
C23         C293   1.485       .  S
C23          C24   1.384       .  A
C24          C25   1.382       .  A
C24          H27   1.082       .  S
C25          C26   1.380       .  A
C25         H900   1.083   1_554  S
C26         C308   1.483   1_554  S
H28         C461   1.083       .  S
N29          C30   1.352       .  A
N29         C469   1.357       .  A
N29         C281   1.431       .  S
C30         C257   1.484       .  S
C30         C467   1.382       .  A
C31          C32   1.380       .  A
C31         C902   1.382   1_554  A
C31          H34   1.083       .  S
C32          C33   1.384       .  A
C32          H35   1.082       .  S
C33         N901   1.357   1_554  A
C33         C269   1.494       .  S
N36          C40   1.356       .  A
N36          C37   1.351       .  A
N36         C248   1.433       .  S
C37         C224   1.482       .  S
C37          C38   1.383       .  A
C38          C39   1.382   1_554  A
C38          H41   1.083       .  S
C39          C40   1.385   1_556  A
C39         H914   1.082       .  S
C40         C236   1.494   1_554  S
H42         C475   1.082       .  S
N43          C47   1.362       .  A
N43          C44   1.364       .  A
N43         C200   1.443       .  S
C44         C209   1.496       .  S
C44          C45   1.383       .  A
C45          C46   1.375       .  A
C45          H48   1.082       .  S
C46          C47   1.383       .  A
C46         H921   1.083   1_554  S
C47         C188   1.496       .  S
H49         C482   1.083       .  S
N50          C51   1.352       .  A
N50         C490   1.357       .  A
N50         C161   1.435       .  S
C51         C173   1.484       .  S
C51         C488   1.384       .  A
C52          C53   1.383       .  A
C52         C923   1.384       .  A
C52          H55   1.083       .  S
C53          C54   1.384       .  A
C53          H56   1.081       .  S
C54         N922   1.357       .  A
C54         C149   1.493       .  S
Zn57         O61   1.929       .  S
Zn57         O62   2.001       .  S
Zn57         O66   1.981       .  S
Zn57         O73   2.005       .  S
Zn58         O61   1.994       .  S
Zn58         O63   2.040       .  S
Zn58         O65   2.062       .  S
Zn58         O69   2.049       .  S
Zn59         O61   1.958       .  S
Zn59         O64   2.024       .  S
Zn59         O67   1.988       .  S
Zn59         O70   2.040       .  S
Zn60         O61   1.947       .  S
Zn60         O68   2.033       .  S
Zn60         O71   1.954       .  S
Zn60         O72   2.044       .  S
O62          C74   1.269       .  A
O63          C75   1.275       .  A
O64          C76   1.275       .  A
O65          C74   1.276       .  A
O66          C76   1.273       .  A
O67          C75   1.270       .  A
O68          C77   1.275       .  A
O69          C78   1.279       .  A
O70          C77   1.276       .  A
O71          C78   1.268       .  A
O72          C79   1.277       .  A
O73          C79   1.272       .  A
C74         C212   1.483       .  S
C75         C233   1.471       .  S
C76         C245   1.471       .  S
C77         C176   1.506       .  S
C78         C284   1.480       .  S
C79         C272   1.500       .  S
Zn80         O84   1.927       .  S
Zn80         O85   1.983       .  S
Zn80         O89   1.995       .  S
Zn80         O96   1.986       .  S
Zn81         O84   1.992       .  S
Zn81         O86   2.036       .  S
Zn81         O88   2.066       .  S
Zn81         O92   2.051       .  S
Zn82         O84   1.947   1_545  S
Zn82         O87   2.020       .  S
Zn82         O90   1.965       .  S
Zn82         O93   2.029       .  S
Zn83         O84   1.948   1_545  S
Zn83         O91   2.021       .  S
Zn83         O94   1.979       .  S
Zn83         O95   2.022       .  S
O85          C97   1.267       .  A
O86          C98   1.277       .  A
O87          C99   1.274       .  A
O88          C97   1.275       .  A
O89          C99   1.272   1_565  A
O90          C98   1.269   1_545  A
O91         C100   1.273       .  A
O92         C101   1.278       .  A
O93         C100   1.275       .  A
O94         C101   1.271   1_545  A
O95         C102   1.274       .  A
O96         C102   1.271   1_565  A
C97         C260   1.478       .  S
C98         C317   1.473       .  S
C99         C305   1.483   1_545  S
C100        C221   1.501       .  S
C101        C344   1.489       .  S
C102        C356   1.467   1_545  S
Zn103       O107   1.938       .  S
Zn103       O108   2.022   1_565  S
Zn103       O112   2.013       .  S
Zn103       O119   1.995   1_455  S
Zn104       O107   1.960   1_545  S
Zn104       O109   2.045       .  S
Zn104       O111   2.047       .  S
Zn104       O115   1.967       .  S
Zn105       O107   1.962       .  S
Zn105       O110   2.021       .  S
Zn105       O113   2.033       .  S
Zn105       O116   1.993       .  S
Zn106       O107   2.000   1_655  S
Zn106       O114   2.068       .  S
Zn106       O117   2.067   1_565  S
Zn106       O118   2.067       .  S
O108        C120   1.276       .  A
O109        C121   1.276   1_545  A
O110        C122   1.274       .  A
O111        C120   1.276       .  A
O112        C122   1.276       .  A
O113        C121   1.276       .  A
O114        C123   1.279       .  A
O115        C124   1.269       .  A
O116        C123   1.270   1_455  A
O117        C124   1.281   1_655  A
O118        C125   1.276       .  A
O119        C125   1.268       .  A
C120        C368   1.499       .  S
C121        C296   1.505       .  S
C122        C416   1.481       .  S
C123        C404   1.480       .  S
C124        C380   1.480       .  S
C125        C329   1.481       .  S
Zn126       O130   1.947   1_655  S
Zn126       O131   2.017       .  S
Zn126       O135   1.952       .  S
Zn126       O142   2.021       .  S
Zn127       O130   1.945       .  S
Zn127       O132   1.996       .  S
Zn127       O134   2.028       .  S
Zn127       O138   2.026       .  S
Zn128       O130   2.016       .  S
Zn128       O133   2.070   1_455  S
Zn128       O136   2.094       .  S
Zn128       O139   2.069       .  S
Zn129       O130   1.945       .  S
Zn129       O137   1.981       .  S
Zn129       O140   2.023       .  S
Zn129       O141   2.017   1_455  S
O131        C143   1.274   1_655  A
O132        C144   1.272       .  A
O133        C145   1.279       .  A
O134        C143   1.275       .  A
O135        C145   1.267       .  A
O136        C144   1.282       .  A
O137        C146   1.270       .  A
O138        C147   1.274       .  A
O139        C146   1.279       .  A
O140        C147   1.274       .  A
O141        C148   1.272       .  A
O142        C148   1.273       .  A
C143        C425   1.497       .  S
C144        C185   1.502       .  S
C145        C164   1.477       .  S
C146        C392   1.478   1_455  S
C147        C197   1.473       .  S
C148        C152   1.493       .  S
C149        C150   1.402       .  A
C149        C154   1.413       .  A
C150        C151   1.399       .  A
C150        H155   1.080       .  S
C151        C152   1.418       .  A
C151        C158   1.445       .  S
C152        C153   1.409       .  A
C153        C154   1.406       .  A
C153        H156   1.083       .  S
C154        C157   1.444       .  S
C157        N159   1.157       .  T
C158        N160   1.157       .  T
C161        C162   1.404       .  A
C161        C166   1.403       .  A
C162        C163   1.406       .  A
C162        H603   1.085       .  S
C163        C164   1.412       .  A
C163        C170   1.442       .  S
C164        C165   1.406       .  A
C165        C166   1.391       .  A
C165        H168   1.086       .  S
C166        C169   1.443       .  S
H167       C1034   1.085       .  S
C169        N171   1.157       .  T
C170        N608   1.157       .  T
N172       C1042   1.157       .  T
C173        C174   1.400       .  A
C173        C178   1.407       .  A
C174        C175   1.406       .  A
C174        H179   1.085       .  S
C175        C176   1.423       .  A
C175        C182   1.444       .  S
C176        C177   1.413       .  A
C177        C178   1.406       .  A
C177        H180   1.084       .  S
C178        C181   1.444       .  S
C181        N183   1.157       .  T
C182        N184   1.157       .  T
C185        C186   1.409       .  A
C185        C626   1.417       .  A
C186        C187   1.399       .  A
C186        H191   1.084       .  S
C187        C624   1.410       .  A
C187        C194   1.445       .  S
C188        C189   1.408       .  A
C188       C1059   1.410   1_554  A
C189        C190   1.414   1_554  A
C189        H192   1.083       .  S
C190       C1057   1.417       .  A
C190        C193   1.442   1_556  S
C193        N195   1.157       .  T
C194        N196   1.157       .  T
C197        C198   1.401       .  A
C197        C202   1.409       .  A
C198        C199   1.396       .  A
C198        H203   1.086       .  S
C199        C200   1.410       .  A
C199        C206   1.442       .  S
C200        C201   1.408       .  A
C201        C202   1.406       .  A
C201        H204   1.084       .  S
C202        C205   1.442       .  S
C205        N207   1.157       .  T
C206        N208   1.157       .  T
C209        C210   1.407       .  A
C209        C214   1.414       .  A
C210        C211   1.403       .  A
C210        H215   1.087       .  S
C211        C212   1.411       .  A
C211        C218   1.446       .  S
C212        C213   1.405       .  A
C213        C214   1.410       .  A
C213        H216   1.086       .  S
C214        C217   1.442       .  S
C217        N219   1.157       .  T
C218        N220   1.158       .  T
C221        C222   1.411       .  A
C221        C226   1.423       .  A
C222        C223   1.403       .  A
C222        H227   1.084       .  S
C223        C224   1.407       .  A
C223        C230   1.444       .  S
C224        C225   1.399       .  A
C225        C226   1.405       .  A
C225        H228   1.086       .  S
C226        C229   1.444       .  S
C229        N231   1.157       .  T
C230        N232   1.157       .  T
C233        C234   1.401       .  A
C233        C238   1.407       .  A
C234        C671   1.404       .  A
C234        H675   1.085       .  S
C235        C236   1.416       .  A
C235       C1106   1.404       .  A
C235        C242   1.443       .  S
C236       C1109   1.406       .  A
C237        C238   1.398       .  A
C237        C672   1.406       .  A
C237        H240   1.081       .  S
C238        C241   1.445       .  S
H239       C1106   1.085       .  S
C241        N243   1.157       .  T
C242        N244   1.157       .  T
C245        C246   1.405       .  A
C245        C250   1.410       .  A
C246        C247   1.389       .  A
C246        H251   1.086       .  S
C247        C248   1.403       .  A
C247        C254   1.444       .  S
C248        C249   1.405       .  A
C249        C250   1.404       .  A
C249        H252   1.084       .  S
C250        C253   1.442       .  S
C253        N255   1.157       .  T
C254        N256   1.157       .  T
C257        C258   1.404       .  A
C257        C262   1.409       .  A
C258        C259   1.405       .  A
C258        H263   1.085       .  S
C259        C260   1.411       .  A
C259        C266   1.444       .  S
C260        C261   1.404       .  A
C261        C262   1.404       .  A
C261        H264   1.085       .  S
C262        C265   1.443       .  S
C265        N267   1.157       .  T
C266        N268   1.157       .  T
C269        C270   1.400       .  A
C269        C274   1.413       .  A
C270        C271   1.400       .  A
C270        H275   1.082       .  S
C271        C272   1.422       .  A
C271        C278   1.445       .  S
C272        C273   1.410       .  A
C273        C274   1.407       .  A
C273        H276   1.084       .  S
C274        C277   1.444       .  S
C277        N279   1.157       .  T
C278        N280   1.158       .  T
C281        C282   1.402       .  A
C281        C286   1.400       .  A
C282        C283   1.402       .  A
C282        H287   1.085       .  S
C283        C284   1.413       .  A
C283        C290   1.443       .  S
C284        C285   1.410       .  A
C285        C286   1.392       .  A
C285        H288   1.086       .  S
C286        C289   1.443       .  S
C289        N291   1.157       .  T
C290        N292   1.157       .  T
C293        C294   1.401       .  A
C293        C298   1.406       .  A
C294        C295   1.406       .  A
C294        H299   1.084   1_565  S
C295        C296   1.421       .  A
C295        C302   1.443   1_565  S
C296        C297   1.412       .  A
C297        C298   1.404       .  A
C297        H300   1.084       .  S
C298        C301   1.444       .  S
C301        N303   1.157       .  T
C302        N304   1.157       .  T
C305        C306   1.408       .  A
C305        C310   1.412   1_565  A
C306        C307   1.398       .  A
C306        H311   1.084       .  S
C307        C744   1.407       .  A
C307        C314   1.444       .  S
C308        C309   1.405   1_565  A
C308       C1179   1.407       .  A
C309       C1182   1.405       .  A
C309        H312   1.084       .  S
C310        C745   1.405       .  A
C310        C749   1.444       .  S
C313       C1182   1.444       .  S
C313        N315   1.157       .  T
C314        N316   1.157       .  T
C317        C318   1.405   1_565  A
C317        C322   1.412       .  A
C318        C319   1.392       .  A
C318        H323   1.085       .  S
C319        C320   1.403   1_545  A
C319        C326   1.442       .  S
C320        C321   1.402       .  A
C321        C322   1.403       .  A
C321        H324   1.084       .  S
C322        C325   1.444       .  S
C325        N327   1.157       .  T
C326        N328   1.157       .  T
C329        C330   1.404   1_565  A
C329        C334   1.411       .  A
C330        C331   1.406       .  A
C330        H335   1.086       .  S
C331        C332   1.412   1_545  A
C331        C774   1.443       .  S
C332        C333   1.404       .  A
C333        C334   1.404       .  A
C333        H336   1.085       .  S
C334        C337   1.444       .  S
C337        N339   1.157       .  T
C338       C1203   1.443       .  S
C338        N340   1.157       .  T
C341        C342   1.405       .  A
C341        C346   1.406       .  A
C342        C343   1.407       .  A
C342        H347   1.084       .  S
C343        C344   1.415       .  A
C343        C350   1.444       .  S
C344        C345   1.409   1_565  A
C345        C346   1.396   1_545  A
C345        H348   1.086       .  S
C346        C349   1.444   1_565  S
C349        N351   1.157       .  T
C350        N352   1.158       .  T
C353        C354   1.405   1_565  A
C353        C358   1.405       .  A
C354        C355   1.405       .  A
C354        H795   1.080       .  S
C355        C356   1.407   1_545  A
C355        C362   1.443       .  S
C356        C357   1.402       .  A
C357        C358   1.391       .  A
C357        H360   1.084       .  S
C358        C361   1.443       .  S
H359       C1226   1.080       .  S
C361        N363   1.157       .  T
C362        N364   1.157       .  T
C365        C366   1.405   1_554  A
C365       C1242   1.407   1_455  A
C366        C367   1.408       .  A
C366        H371   1.086       .  S
C367       C1240   1.419       .  A
C367        C374   1.443       .  S
C368        C369   1.410       .  A
C368        C803   1.419       .  A
C369        C370   1.400   1_455  A
C369        H372   1.086   1_455  S
C370        C801   1.407   1_655  A
C370        C373   1.444       .  S
C373        N375   1.157       .  T
C374        N376   1.157       .  T
C377        C378   1.405   1_455  A
C377        C382   1.405       .  A
C378        C379   1.407       .  A
C378        H383   1.084       .  S
C379        C380   1.413   1_655  A
C379        C386   1.443       .  S
C380        C381   1.405       .  A
C381        C382   1.393       .  A
C381        H384   1.085       .  S
C382        C385   1.443       .  S
C385        N387   1.157       .  T
C386        N388   1.157       .  T
C389        C390   1.407   1_655  A
C389        C394   1.411       .  A
C390        C391   1.410       .  A
C390        H395   1.086       .  S
C391        C392   1.410   1_455  A
C391        C398   1.443       .  S
C392        C393   1.402       .  A
C393        C394   1.399       .  A
C393        H396   1.087       .  S
C394        C397   1.444       .  S
C397        N399   1.157       .  T
C398        N400   1.157       .  T
C401        C402   1.404   1_655  A
C401        C406   1.416       .  A
C402        C403   1.400       .  A
C402        H407   1.082       .  S
C403        C404   1.410   1_455  A
C403        C410   1.444       .  S
C404        C405   1.404       .  A
C405        C406   1.408       .  A
C405        H408   1.084       .  S
C406        C409   1.444       .  S
C409        N411   1.157       .  T
C410        N412   1.157       .  T
C413        C414   1.404   1_655  A
C413        C418   1.406       .  A
C414        C415   1.406       .  A
C414        H419   1.084       .  S
C415        C416   1.413       .  A
C415        C422   1.442       .  S
C416        C417   1.405   1_455  A
C417        C418   1.395       .  A
C417        H420   1.084       .  S
C418        C421   1.443       .  S
C421        N423   1.157       .  T
C422        N424   1.157       .  T
C425        C426   1.410   1_455  A
C425        C430   1.421       .  A
C426        C427   1.405       .  A
C426        H431   1.084       .  S
C427        C428   1.408   1_655  A
C427        C434   1.443       .  S
C428        C429   1.401       .  A
C429        C430   1.403       .  A
C429        H432   1.085       .  S
C430        C433   1.445       .  S
C433        N435   1.158       .  T
C434        N436   1.157       .  T
N437        C877   1.360       .  A
N437        C438   1.355       .  A
N437        C849   1.439       .  S
C438        C864   1.484   1_655  S
C438        C875   1.382       .  A
C439        C440   1.380       .  A
C439        H442   1.083       .  S
C440        C441   1.384       .  A
C440        H443   1.081       .  S
C441        C837   1.495       .  S
N444        C448   1.360       .  A
N444        C445   1.355       .  A
N444        C813   1.439       .  S
C445        C825   1.487   1_455  S
C445        C446   1.385       .  A
C446        C447   1.378       .  A
C446        H449   1.083       .  S
C447        C448   1.380       .  A
C448        C801   1.490       .  S
H450        C883   1.083       .  S
N451        C891   1.354       .  A
N451        C452   1.355       .  A
N451        C789   1.433       .  S
C452        C768   1.486       .  S
C452        C889   1.385       .  A
C453        C454   1.379       .  A
C453        H456   1.082       .  S
C454        C455   1.379       .  A
C454        H457   1.082       .  S
C455        C777   1.482       .  S
N458        C462   1.354       .  A
N458        C459   1.352       .  A
N458        C756   1.432       .  S
C459        C729   1.485       .  S
C459        C460   1.384       .  A
C460        C461   1.382       .  A
C460        H463   1.082       .  S
C461        C462   1.380       .  A
C462        C744   1.483       .  S
H464        C897   1.083       .  S
N465        C905   1.357       .  A
N465        C466   1.352       .  A
N465        C717   1.431       .  S
C466        C693   1.484       .  S
C466        C903   1.382       .  A
C467        C468   1.380       .  A
C467        H470   1.083       .  S
C468        C469   1.384       .  A
C468        H471   1.082       .  S
C469        C705   1.494       .  S
N472        C476   1.356       .  A
N472        C473   1.351       .  A
N472        C684   1.433       .  S
C473        C660   1.482       .  S
C473        C474   1.383       .  A
C474        C475   1.382       .  A
C474        H477   1.083       .  S
C475        C476   1.385       .  A
C476        C672   1.494       .  S
H478        C911   1.082       .  S
N479        C483   1.362       .  A
N479        C480   1.364       .  A
N479        C636   1.443       .  S
C480        C645   1.496       .  S
C480        C481   1.383       .  A
C481        C482   1.375       .  A
C481        H484   1.082       .  S
C482        C483   1.383       .  A
C483        C624   1.496       .  S
H485        C918   1.083       .  S
N486        C926   1.357       .  A
N486        C487   1.352       .  A
N486        C597   1.435       .  S
C487        C609   1.484       .  S
C487        C924   1.384       .  A
C488        C489   1.383       .  A
C488        H491   1.083       .  S
C489        C490   1.384       .  A
C489        H492   1.081       .  S
C490        C585   1.493       .  S
Zn493       O497   1.929       .  S
Zn493       O498   2.001       .  S
Zn493       O502   1.981       .  S
Zn493       O509   2.005       .  S
Zn494       O497   1.994       .  S
Zn494       O499   2.040       .  S
Zn494       O501   2.062       .  S
Zn494       O505   2.049       .  S
Zn495       O497   1.958       .  S
Zn495       O500   2.023       .  S
Zn495       O503   1.988       .  S
Zn495       O506   2.040       .  S
Zn496       O497   1.946       .  S
Zn496       O504   2.033       .  S
Zn496       O507   1.954       .  S
Zn496       O508   2.044       .  S
O498        C510   1.269       .  A
O499        C511   1.275       .  A
O500        C512   1.275       .  A
O501        C510   1.276       .  A
O502        C512   1.273       .  A
O503        C511   1.270       .  A
O504        C513   1.275       .  A
O505        C514   1.279       .  A
O506        C513   1.276       .  A
O507        C514   1.268       .  A
O508        C515   1.277       .  A
O509        C515   1.272       .  A
C510        C648   1.483       .  S
C511        C669   1.471       .  S
C512        C681   1.471       .  S
C513        C612   1.505       .  S
C514        C720   1.480       .  S
C515        C708   1.500       .  S
Zn516       O520   1.927       .  S
Zn516       O521   1.983       .  S
Zn516       O525   1.995       .  S
Zn516       O532   1.986       .  S
Zn517       O520   1.992       .  S
Zn517       O522   2.036       .  S
Zn517       O524   2.066       .  S
Zn517       O528   2.051       .  S
Zn518       O520   1.947   1_545  S
Zn518       O523   2.020       .  S
Zn518       O526   1.965       .  S
Zn518       O529   2.028       .  S
Zn519       O520   1.948   1_545  S
Zn519       O527   2.021       .  S
Zn519       O530   1.980       .  S
Zn519       O531   2.023       .  S
O521        C533   1.267       .  A
O522        C534   1.277       .  A
O523        C535   1.274       .  A
O524        C533   1.275       .  A
O525        C535   1.272   1_565  A
O526        C534   1.269   1_545  A
O527        C536   1.273       .  A
O528        C537   1.278       .  A
O529        C536   1.275       .  A
O530        C537   1.271   1_545  A
O531        C538   1.274       .  A
O532        C538   1.271   1_565  A
C533        C696   1.478       .  S
C534        C753   1.473       .  S
C535        C741   1.483   1_545  S
C536        C657   1.501       .  S
C537        C780   1.489       .  S
C538        C792   1.467   1_545  S
Zn539       O543   1.939       .  S
Zn539       O544   2.022   1_565  S
Zn539       O548   2.014       .  S
Zn539       O555   1.995   1_455  S
Zn540       O543   1.961   1_545  S
Zn540       O545   2.045       .  S
Zn540       O547   2.047       .  S
Zn540       O551   1.967       .  S
Zn541       O543   1.962       .  S
Zn541       O546   2.020       .  S
Zn541       O549   2.032       .  S
Zn541       O552   1.993       .  S
Zn542       O543   2.001   1_655  S
Zn542       O550   2.069       .  S
Zn542       O553   2.067   1_565  S
Zn542       O554   2.068       .  S
O544        C556   1.276       .  A
O545        C557   1.276   1_545  A
O546        C558   1.274       .  A
O547        C556   1.276       .  A
O548        C558   1.276       .  A
O549        C557   1.275       .  A
O550        C559   1.279       .  A
O551        C560   1.269       .  A
O552        C559   1.270   1_455  A
O553        C560   1.281   1_655  A
O554        C561   1.276       .  A
O555        C561   1.268       .  A
C556        C804   1.499       .  S
C557        C732   1.505       .  S
C558        C852   1.481       .  S
C559        C840   1.481       .  S
C560        C816   1.480       .  S
C561        C765   1.481       .  S
Zn562       O566   1.947   1_655  S
Zn562       O567   2.017       .  S
Zn562       O571   1.952       .  S
Zn562       O578   2.021       .  S
Zn563       O566   1.944       .  S
Zn563       O568   1.997       .  S
Zn563       O570   2.028       .  S
Zn563       O574   2.026       .  S
Zn564       O566   2.016       .  S
Zn564       O569   2.070   1_455  S
Zn564       O572   2.094       .  S
Zn564       O575   2.069       .  S
Zn565       O566   1.945       .  S
Zn565       O573   1.981       .  S
Zn565       O576   2.024       .  S
Zn565       O577   2.018   1_455  S
O567        C579   1.274   1_655  A
O568        C580   1.272       .  A
O569        C581   1.279       .  A
O570        C579   1.275       .  A
O571        C581   1.267       .  A
O572        C580   1.282       .  A
O573        C582   1.270       .  A
O574        C583   1.274       .  A
O575        C582   1.278       .  A
O576        C583   1.274       .  A
O577        C584   1.272       .  A
O578        C584   1.273       .  A
C579        C861   1.497       .  S
C580        C621   1.502       .  S
C581        C600   1.477       .  S
C582        C828   1.478   1_455  S
C583        C633   1.473       .  S
C584        C588   1.493       .  S
C585        C586   1.402       .  A
C585        C590   1.413       .  A
C586        C587   1.399       .  A
C586        H591   1.080       .  S
C587        C588   1.418       .  A
C587        C594   1.445       .  S
C588        C589   1.409       .  A
C589        C590   1.406       .  A
C589        H592   1.083       .  S
C590        C593   1.444       .  S
C593        N595   1.157       .  T
C594        N596   1.157       .  T
C597        C598   1.404       .  A
C597        C602   1.403       .  A
C598        C599   1.406       .  A
C598       H1039   1.084       .  S
C599        C600   1.412       .  A
C599        C606   1.442       .  S
C600        C601   1.406       .  A
C601        C602   1.391       .  A
C601        H604   1.086       .  S
C602        C605   1.443       .  S
C605        N607   1.157       .  T
C606       N1044   1.157       .  T
C609        C610   1.400       .  A
C609        C614   1.407       .  A
C610        C611   1.406       .  A
C610        H615   1.085       .  S
C611        C612   1.423       .  A
C611        C618   1.444       .  S
C612        C613   1.413       .  A
C613        C614   1.406       .  A
C613        H616   1.084       .  S
C614        C617   1.444       .  S
C617        N619   1.157       .  T
C618        N620   1.157       .  T
C621        C622   1.409       .  A
C621       C1062   1.417       .  A
C622        C623   1.399       .  A
C622        H627   1.084       .  S
C623       C1060   1.410       .  A
C623        C630   1.445       .  S
C624        C625   1.408       .  A
C625        C626   1.414       .  A
C625        H628   1.083       .  S
C626        C629   1.442       .  S
C629        N631   1.157       .  T
C630        N632   1.157       .  T
C633        C634   1.401       .  A
C633        C638   1.409       .  A
C634        C635   1.396       .  A
C634        H639   1.086       .  S
C635        C636   1.410       .  A
C635        C642   1.442       .  S
C636        C637   1.408       .  A
C637        C638   1.406       .  A
C637        H640   1.084       .  S
C638        C641   1.442       .  S
C641        N643   1.157       .  T
C642        N644   1.157       .  T
C645        C646   1.407       .  A
C645        C650   1.414       .  A
C646        C647   1.403       .  A
C646        H651   1.087       .  S
C647        C648   1.411       .  A
C647        C654   1.446       .  S
C648        C649   1.405       .  A
C649        C650   1.410       .  A
C649        H652   1.086       .  S
C650        C653   1.442       .  S
C653        N655   1.157       .  T
C654        N656   1.158       .  T
C657        C658   1.411       .  A
C657        C662   1.423       .  A
C658        C659   1.403       .  A
C658        H663   1.084       .  S
C659        C660   1.407       .  A
C659        C666   1.444       .  S
C660        C661   1.399       .  A
C661        C662   1.405       .  A
C661        H664   1.086       .  S
C662        C665   1.444       .  S
C665        N667   1.157       .  T
C666        N668   1.157       .  T
C669        C670   1.401       .  A
C669        C674   1.407       .  A
C670       C1107   1.404       .  A
C670       H1111   1.085       .  S
C671        C672   1.416       .  A
C671        C678   1.443       .  S
C673       C1108   1.406       .  A
C673        C674   1.398       .  A
C673        H676   1.081       .  S
C674        C677   1.445       .  S
C677        N679   1.157       .  T
C678        N680   1.157       .  T
C681        C682   1.405       .  A
C681        C686   1.410       .  A
C682        C683   1.389       .  A
C682        H687   1.086       .  S
C683        C684   1.403       .  A
C683        C690   1.444       .  S
C684        C685   1.405       .  A
C685        C686   1.404       .  A
C685        H688   1.084       .  S
C686        C689   1.442       .  S
C689        N691   1.157       .  T
C690        N692   1.157       .  T
C693        C694   1.404       .  A
C693        C698   1.409       .  A
C694        C695   1.405       .  A
C694        H699   1.085       .  S
C695        C696   1.411       .  A
C695        C702   1.444       .  S
C696        C697   1.404       .  A
C697        C698   1.404       .  A
C697        H700   1.085       .  S
C698        C701   1.443       .  S
C701        N703   1.157       .  T
C702        N704   1.157       .  T
C705        C706   1.400       .  A
C705        C710   1.413       .  A
C706        C707   1.400       .  A
C706        H711   1.082       .  S
C707        C708   1.422       .  A
C707        C714   1.445       .  S
C708        C709   1.409       .  A
C709        C710   1.407       .  A
C709        H712   1.084       .  S
C710        C713   1.444       .  S
C713        N715   1.157       .  T
C714        N716   1.158       .  T
C717        C718   1.402       .  A
C717        C722   1.400       .  A
C718        C719   1.402       .  A
C718        H723   1.085       .  S
C719        C720   1.413       .  A
C719        C726   1.443       .  S
C720        C721   1.410       .  A
C721        C722   1.392       .  A
C721        H724   1.086       .  S
C722        C725   1.443       .  S
C725        N727   1.157       .  T
C726        N728   1.157       .  T
C729        C730   1.401       .  A
C729        C734   1.406       .  A
C730        C731   1.406       .  A
C730        H735   1.084   1_565  S
C731        C732   1.421       .  A
C731        C738   1.443   1_565  S
C732        C733   1.412       .  A
C733        C734   1.404       .  A
C733        H736   1.084       .  S
C734        C737   1.444       .  S
C737        N739   1.157       .  T
C738        N740   1.157       .  T
C741        C742   1.408       .  A
C741        C746   1.412   1_565  A
C742        C743   1.398       .  A
C742        H747   1.084       .  S
C743       C1180   1.407       .  A
C743        C750   1.444       .  S
C744        C745   1.405   1_565  A
C745        H748   1.084       .  S
C746       C1181   1.405       .  A
C746       C1185   1.444       .  S
C749        N751   1.157       .  T
C750        N752   1.157       .  T
C753        C754   1.405   1_565  A
C753        C758   1.412       .  A
C754        C755   1.392       .  A
C754        H759   1.085       .  S
C755        C756   1.403   1_545  A
C755        C762   1.442       .  S
C756        C757   1.402       .  A
C757        C758   1.403       .  A
C757        H760   1.084       .  S
C758        C761   1.444       .  S
C761        N763   1.157       .  T
C762        N764   1.157       .  T
C765        C766   1.404   1_565  A
C765        C770   1.411       .  A
C766        C767   1.407       .  A
C766        H771   1.086       .  S
C767        C768   1.412   1_545  A
C767       C1210   1.443       .  S
C768        C769   1.404       .  A
C769        C770   1.404       .  A
C769        H772   1.085       .  S
C770        C773   1.444       .  S
C773        N775   1.157       .  T
C774        N776   1.157       .  T
C777        C778   1.405       .  A
C777        C782   1.406       .  A
C778        C779   1.407       .  A
C778        H783   1.084       .  S
C779        C780   1.415       .  A
C779        C786   1.444       .  S
C780        C781   1.409   1_565  A
C781        C782   1.396   1_545  A
C781        H784   1.086       .  S
C782        C785   1.444   1_565  S
C785        N787   1.157       .  T
C786        N788   1.158       .  T
C789        C790   1.405   1_565  A
C789        C794   1.405       .  A
C790        C791   1.405       .  A
C790       H1231   1.080       .  S
C791        C792   1.407   1_545  A
C791        C798   1.443       .  S
C792        C793   1.402       .  A
C793        C794   1.391       .  A
C793        H796   1.084       .  S
C794        C797   1.443       .  S
C797        N799   1.157       .  T
C798        N800   1.157       .  T
C801        C802   1.405       .  A
C802        C803   1.408       .  A
C802        H807   1.086       .  S
C803        C810   1.443       .  S
C804       C1239   1.419       .  A
C804        C805   1.410       .  A
C805        C806   1.400   1_455  A
C805        H808   1.086   1_455  S
C806       C1237   1.407   1_655  A
C806        C809   1.444       .  S
C809        N811   1.157       .  T
C810        N812   1.157       .  T
C813        C814   1.405   1_455  A
C813        C818   1.405       .  A
C814        C815   1.407       .  A
C814        H819   1.084       .  S
C815        C816   1.413   1_655  A
C815        C822   1.443       .  S
C816        C817   1.406       .  A
C817        C818   1.394       .  A
C817        H820   1.085       .  S
C818        C821   1.443       .  S
C821        N823   1.157       .  T
C822        N824   1.157       .  T
C825        C826   1.407   1_655  A
C825        C830   1.411       .  A
C826        C827   1.410       .  A
C826        H831   1.086       .  S
C827        C828   1.410   1_455  A
C827        C834   1.443       .  S
C828        C829   1.402       .  A
C829        C830   1.399       .  A
C829        H832   1.087       .  S
C830        C833   1.444       .  S
C833        N835   1.157       .  T
C834        N836   1.157       .  T
C837        C838   1.404   1_655  A
C837        C842   1.416       .  A
C838        C839   1.399       .  A
C838        H843   1.081       .  S
C839        C840   1.410   1_455  A
C839        C846   1.444       .  S
C840        C841   1.404       .  A
C841        C842   1.408       .  A
C841        H844   1.084       .  S
C842        C845   1.444       .  S
C845        N847   1.157       .  T
C846        N848   1.157       .  T
C849        C850   1.404   1_655  A
C849        C854   1.406       .  A
C850        C851   1.406       .  A
C850        H855   1.084       .  S
C851        C852   1.413       .  A
C851        C858   1.442       .  S
C852        C853   1.405   1_455  A
C853        C854   1.395       .  A
C853        H856   1.084       .  S
C854        C857   1.443       .  S
C857        N859   1.157       .  T
C858        N860   1.157       .  T
C861        C862   1.411   1_455  A
C861        C866   1.421       .  A
C862        C863   1.405       .  A
C862        H867   1.084       .  S
C863        C864   1.408   1_655  A
C863        C870   1.443       .  S
C864        C865   1.401       .  A
C865        C866   1.403       .  A
C865        H868   1.085       .  S
C866        C869   1.445       .  S
C869        N871   1.158       .  T
C870        N872   1.157       .  T
N873        C874   1.355       .  A
N873       C1285   1.439   1_554  S
C874       C1300   1.484   1_654  S
C875        C876   1.380       .  A
C875        H878   1.083       .  S
C876        C877   1.384       .  A
C876        H879   1.081       .  S
C877       C1273   1.495       .  S
N880        C884   1.360       .  A
N880        C881   1.355       .  A
N880       C1249   1.439       .  S
C881       C1261   1.487   1_455  S
C881        C882   1.385       .  A
C882        C883   1.378       .  A
C882        H885   1.083       .  S
C883        C884   1.380       .  A
C884       C1237   1.490       .  S
N887        C888   1.355       .  A
N887       C1225   1.433   1_554  S
C888       C1204   1.486   1_554  S
C889        C890   1.379       .  A
C889        H892   1.082       .  S
C890        C891   1.379       .  A
C890        H893   1.082       .  S
C891       C1213   1.482       .  S
N894        C898   1.354       .  A
N894        C895   1.352       .  A
N894       C1192   1.432       .  S
C895       C1165   1.485       .  S
C895        C896   1.384       .  A
C896        C897   1.382       .  A
C896        H899   1.082       .  S
C897        C898   1.380       .  A
C898       C1180   1.483       .  S
N901        C902   1.352       .  A
N901       C1153   1.431       .  S
C902       C1129   1.484       .  S
C903        C904   1.380       .  A
C903        H906   1.083       .  S
C904        C905   1.384       .  A
C904        H907   1.082       .  S
C905       C1141   1.494       .  S
N908        C912   1.356       .  A
N908        C909   1.351       .  A
N908       C1120   1.433       .  S
C909       C1096   1.482       .  S
C909        C910   1.383       .  A
C910        C911   1.382       .  A
C910        H913   1.083       .  S
C911        C912   1.385       .  A
C912       C1108   1.494       .  S
N915        C919   1.363       .  A
N915        C916   1.364       .  A
N915       C1072   1.443       .  S
C916       C1081   1.496       .  S
C916        C917   1.383       .  A
C917        C918   1.375       .  A
C917        H920   1.082       .  S
C918        C919   1.383       .  A
C919       C1060   1.496       .  S
N922        C923   1.352       .  A
N922       C1033   1.435   1_554  S
C923       C1045   1.484   1_554  S
C924        C925   1.383       .  A
C924        H927   1.083       .  S
C925        C926   1.384       .  A
C925        H928   1.081       .  S
C926       C1021   1.493       .  S
Zn929       O933   1.929       .  S
Zn929       O934   2.001       .  S
Zn929       O938   1.981       .  S
Zn929       O945   2.005       .  S
Zn930       O933   1.994       .  S
Zn930       O935   2.040       .  S
Zn930       O937   2.062       .  S
Zn930       O941   2.049       .  S
Zn931       O933   1.958       .  S
Zn931       O936   2.024       .  S
Zn931       O939   1.988       .  S
Zn931       O942   2.040       .  S
Zn932       O933   1.946       .  S
Zn932       O940   2.033       .  S
Zn932       O943   1.954       .  S
Zn932       O944   2.045       .  S
O934        C946   1.269       .  A
O935        C947   1.275       .  A
O936        C948   1.275       .  A
O937        C946   1.276       .  A
O938        C948   1.273       .  A
O939        C947   1.270       .  A
O940        C949   1.275       .  A
O941        C950   1.279       .  A
O942        C949   1.276       .  A
O943        C950   1.268       .  A
O944        C951   1.277       .  A
O945        C951   1.272       .  A
C946       C1084   1.483       .  S
C947       C1105   1.471       .  S
C948       C1117   1.471       .  S
C949       C1048   1.506       .  S
C950       C1156   1.481       .  S
C951       C1144   1.500       .  S
Zn952       O956   1.927       .  S
Zn952       O957   1.984       .  S
Zn952       O961   1.995       .  S
Zn952       O968   1.986       .  S
Zn953       O956   1.992       .  S
Zn953       O958   2.036       .  S
Zn953       O960   2.066       .  S
Zn953       O964   2.051       .  S
Zn954       O956   1.947   1_545  S
Zn954       O959   2.020       .  S
Zn954       O962   1.965       .  S
Zn954       O965   2.028       .  S
Zn955       O956   1.948   1_545  S
Zn955       O963   2.021       .  S
Zn955       O966   1.979       .  S
Zn955       O967   2.022       .  S
O957        C969   1.267       .  A
O958        C970   1.277       .  A
O959        C971   1.274       .  A
O960        C969   1.275       .  A
O961        C971   1.272   1_565  A
O962        C970   1.269   1_545  A
O963        C972   1.273       .  A
O964        C973   1.278       .  A
O965        C972   1.275       .  A
O966        C973   1.271   1_545  A
O967        C974   1.274       .  A
O968        C974   1.271   1_565  A
C969       C1132   1.478       .  S
C970       C1189   1.473       .  S
C971       C1177   1.483   1_545  S
C972       C1093   1.501       .  S
C973       C1216   1.489       .  S
C974       C1228   1.467   1_545  S
Zn975       O979   1.938       .  S
Zn975       O980   2.022   1_565  S
Zn975       O984   2.013       .  S
Zn975       O991   1.995   1_455  S
Zn976       O979   1.960   1_545  S
Zn976       O981   2.045       .  S
Zn976       O983   2.047       .  S
Zn976       O987   1.967       .  S
Zn977       O979   1.962       .  S
Zn977       O982   2.020       .  S
Zn977       O985   2.032       .  S
Zn977       O988   1.992       .  S
Zn978       O979   2.001   1_655  S
Zn978       O986   2.068       .  S
Zn978       O989   2.067   1_565  S
Zn978       O990   2.067       .  S
O980        C992   1.276       .  A
O981        C993   1.276   1_545  A
O982        C994   1.274       .  A
O983        C992   1.276       .  A
O984        C994   1.276       .  A
O985        C993   1.275       .  A
O986        C995   1.279       .  A
O987        C996   1.269       .  A
O988        C995   1.270   1_455  A
O989        C996   1.281   1_655  A
O990        C997   1.276       .  A
O991        C997   1.268       .  A
C992       C1240   1.499       .  S
C993       C1168   1.505       .  S
C994       C1288   1.481       .  S
C995       C1276   1.480       .  S
C996       C1252   1.480       .  S
C997       C1201   1.481       .  S
Zn998      O1002   1.947   1_655  S
Zn998      O1003   2.017       .  S
Zn998      O1007   1.952       .  S
Zn998      O1014   2.021       .  S
Zn999      O1002   1.944       .  S
Zn999      O1004   1.996       .  S
Zn999      O1006   2.028       .  S
Zn999      O1010   2.026       .  S
Zn1000     O1002   2.016       .  S
Zn1000     O1005   2.070   1_455  S
Zn1000     O1008   2.094       .  S
Zn1000     O1011   2.069       .  S
Zn1001     O1002   1.945       .  S
Zn1001     O1009   1.981       .  S
Zn1001     O1012   2.024       .  S
Zn1001     O1013   2.017   1_455  S
O1003      C1015   1.274   1_655  A
O1004      C1016   1.272       .  A
O1005      C1017   1.279       .  A
O1006      C1015   1.275       .  A
O1007      C1017   1.267       .  A
O1008      C1016   1.282       .  A
O1009      C1018   1.270       .  A
O1010      C1019   1.274       .  A
O1011      C1018   1.279       .  A
O1012      C1019   1.274       .  A
O1013      C1020   1.272       .  A
O1014      C1020   1.273       .  A
C1015      C1297   1.497       .  S
C1016      C1057   1.502       .  S
C1017      C1036   1.477       .  S
C1018      C1264   1.478   1_455  S
C1019      C1069   1.473       .  S
C1020      C1024   1.493       .  S
C1021      C1022   1.402       .  A
C1021      C1026   1.413       .  A
C1022      C1023   1.399       .  A
C1022      H1027   1.080       .  S
C1023      C1024   1.418       .  A
C1023      C1030   1.445       .  S
C1024      C1025   1.409       .  A
C1025      C1026   1.406       .  A
C1025      H1028   1.083       .  S
C1026      C1029   1.444       .  S
C1029      N1031   1.157       .  T
C1030      N1032   1.157       .  T
C1033      C1034   1.405       .  A
C1033      C1038   1.403       .  A
C1034      C1035   1.406       .  A
C1035      C1036   1.412       .  A
C1035      C1042   1.442       .  S
C1036      C1037   1.406       .  A
C1037      C1038   1.391       .  A
C1037      H1040   1.086       .  S
C1038      C1041   1.443       .  S
C1041      N1043   1.157   1_556  T
C1045      C1046   1.400       .  A
C1045      C1050   1.407       .  A
C1046      C1047   1.406       .  A
C1046      H1051   1.085       .  S
C1047      C1048   1.423       .  A
C1047      C1054   1.444       .  S
C1048      C1049   1.413       .  A
C1049      C1050   1.406       .  A
C1049      H1052   1.084       .  S
C1050      C1053   1.444       .  S
C1053      N1055   1.157   1_556  T
C1054      N1056   1.157       .  T
C1057      C1058   1.409       .  A
C1058      C1059   1.399       .  A
C1058      H1063   1.084       .  S
C1059      C1066   1.445       .  S
C1060      C1061   1.408       .  A
C1061      C1062   1.414       .  A
C1061      H1064   1.083       .  S
C1062      C1065   1.442       .  S
C1065      N1067   1.157       .  T
C1066      N1068   1.157       .  T
C1069      C1070   1.401       .  A
C1069      C1074   1.409       .  A
C1070      C1071   1.396       .  A
C1070      H1075   1.086       .  S
C1071      C1072   1.410       .  A
C1071      C1078   1.442       .  S
C1072      C1073   1.408       .  A
C1073      C1074   1.406       .  A
C1073      H1076   1.084       .  S
C1074      C1077   1.442       .  S
C1077      N1079   1.157       .  T
C1078      N1080   1.157       .  T
C1081      C1082   1.407       .  A
C1081      C1086   1.414       .  A
C1082      C1083   1.403       .  A
C1082      H1087   1.087       .  S
C1083      C1084   1.411       .  A
C1083      C1090   1.446       .  S
C1084      C1085   1.405       .  A
C1085      C1086   1.410       .  A
C1085      H1088   1.086       .  S
C1086      C1089   1.442       .  S
C1089      N1091   1.157       .  T
C1090      N1092   1.158       .  T
C1093      C1094   1.411       .  A
C1093      C1098   1.423       .  A
C1094      C1095   1.403       .  A
C1094      H1099   1.084       .  S
C1095      C1096   1.407       .  A
C1095      C1102   1.444       .  S
C1096      C1097   1.399       .  A
C1097      C1098   1.405       .  A
C1097      H1100   1.086       .  S
C1098      C1101   1.444       .  S
C1101      N1103   1.157       .  T
C1102      N1104   1.157       .  T
C1105      C1106   1.401       .  A
C1105      C1110   1.407       .  A
C1107      C1108   1.416       .  A
C1107      C1114   1.443       .  S
C1109      C1110   1.398       .  A
C1109      H1112   1.081   1_556  S
C1110      C1113   1.445       .  S
C1113      N1115   1.157       .  T
C1114      N1116   1.157       .  T
C1117      C1118   1.405       .  A
C1117      C1122   1.410       .  A
C1118      C1119   1.389       .  A
C1118      H1123   1.086       .  S
C1119      C1120   1.403       .  A
C1119      C1126   1.444       .  S
C1120      C1121   1.405       .  A
C1121      C1122   1.404       .  A
C1121      H1124   1.084       .  S
C1122      C1125   1.442       .  S
C1125      N1127   1.157       .  T
C1126      N1128   1.157       .  T
C1129      C1130   1.404       .  A
C1129      C1134   1.409       .  A
C1130      C1131   1.406       .  A
C1130      H1135   1.085       .  S
C1131      C1132   1.411       .  A
C1131      C1138   1.444       .  S
C1132      C1133   1.404       .  A
C1133      C1134   1.404       .  A
C1133      H1136   1.085       .  S
C1134      C1137   1.443       .  S
C1137      N1139   1.157       .  T
C1138      N1140   1.157       .  T
C1141      C1142   1.400       .  A
C1141      C1146   1.413       .  A
C1142      C1143   1.400       .  A
C1142      H1147   1.082       .  S
C1143      C1144   1.422       .  A
C1143      C1150   1.445       .  S
C1144      C1145   1.410       .  A
C1145      C1146   1.407       .  A
C1145      H1148   1.084       .  S
C1146      C1149   1.444       .  S
C1149      N1151   1.157       .  T
C1150      N1152   1.158       .  T
C1153      C1154   1.402       .  A
C1153      C1158   1.400       .  A
C1154      C1155   1.402       .  A
C1154      H1159   1.085       .  S
C1155      C1156   1.413       .  A
C1155      C1162   1.443       .  S
C1156      C1157   1.410       .  A
C1157      C1158   1.392       .  A
C1157      H1160   1.086       .  S
C1158      C1161   1.443       .  S
C1161      N1163   1.157       .  T
C1162      N1164   1.157       .  T
C1165      C1166   1.401       .  A
C1165      C1170   1.406       .  A
C1166      C1167   1.406       .  A
C1166      H1171   1.084   1_565  S
C1167      C1168   1.421       .  A
C1167      C1174   1.443   1_565  S
C1168      C1169   1.413       .  A
C1169      C1170   1.404       .  A
C1169      H1172   1.084       .  S
C1170      C1173   1.444       .  S
C1173      N1175   1.157       .  T
C1174      N1176   1.157       .  T
C1177      C1178   1.408       .  A
C1177      C1182   1.412   1_565  A
C1178      C1179   1.398       .  A
C1178      H1183   1.084       .  S
C1179      C1186   1.444   1_556  S
C1180      C1181   1.405   1_565  A
C1181      H1184   1.084       .  S
C1185      N1187   1.157       .  T
C1186      N1188   1.157       .  T
C1189      C1190   1.405   1_565  A
C1189      C1194   1.412       .  A
C1190      C1191   1.392       .  A
C1190      H1195   1.085       .  S
C1191      C1192   1.403   1_545  A
C1191      C1198   1.442       .  S
C1192      C1193   1.402       .  A
C1193      C1194   1.403       .  A
C1193      H1196   1.084       .  S
C1194      C1197   1.444       .  S
C1197      N1199   1.157       .  T
C1198      N1200   1.157       .  T
C1201      C1202   1.404   1_565  A
C1201      C1206   1.411       .  A
C1202      C1203   1.407       .  A
C1202      H1207   1.086       .  S
C1203      C1204   1.412   1_545  A
C1204      C1205   1.404       .  A
C1205      C1206   1.404       .  A
C1205      H1208   1.085       .  S
C1206      C1209   1.444       .  S
C1209      N1211   1.157       .  T
C1210      N1212   1.157       .  T
C1213      C1214   1.405       .  A
C1213      C1218   1.406       .  A
C1214      C1215   1.407       .  A
C1214      H1219   1.084       .  S
C1215      C1216   1.415       .  A
C1215      C1222   1.444       .  S
C1216      C1217   1.409   1_565  A
C1217      C1218   1.396   1_545  A
C1217      H1220   1.086       .  S
C1218      C1221   1.444   1_565  S
C1221      N1223   1.157       .  T
C1222      N1224   1.158       .  T
C1225      C1226   1.405   1_565  A
C1225      C1230   1.405       .  A
C1226      C1227   1.405       .  A
C1227      C1228   1.407   1_545  A
C1227      C1234   1.443       .  S
C1228      C1229   1.402       .  A
C1229      C1230   1.391       .  A
C1229      H1232   1.084       .  S
C1230      C1233   1.443       .  S
C1233      N1235   1.157       .  T
C1234      N1236   1.157       .  T
C1237      C1238   1.405       .  A
C1238      C1239   1.408       .  A
C1238      H1243   1.086       .  S
C1239      C1246   1.443       .  S
C1240      C1241   1.410       .  A
C1241      C1242   1.400   1_456  A
C1241      H1244   1.086   1_455  S
C1242      C1245   1.444       .  S
C1245      N1247   1.157       .  T
C1246      N1248   1.157       .  T
C1249      C1250   1.405   1_455  A
C1249      C1254   1.405       .  A
C1250      C1251   1.407       .  A
C1250      H1255   1.084       .  S
C1251      C1252   1.413   1_655  A
C1251      C1258   1.443       .  S
C1252      C1253   1.405       .  A
C1253      C1254   1.393       .  A
C1253      H1256   1.085       .  S
C1254      C1257   1.443       .  S
C1257      N1259   1.157       .  T
C1258      N1260   1.157       .  T
C1261      C1262   1.407   1_655  A
C1261      C1266   1.411       .  A
C1262      C1263   1.410       .  A
C1262      H1267   1.086       .  S
C1263      C1264   1.410   1_455  A
C1263      C1270   1.443       .  S
C1264      C1265   1.402       .  A
C1265      C1266   1.399       .  A
C1265      H1268   1.087       .  S
C1266      C1269   1.444       .  S
C1269      N1271   1.157       .  T
C1270      N1272   1.157       .  T
C1273      C1274   1.404   1_655  A
C1273      C1278   1.416       .  A
C1274      C1275   1.400       .  A
C1274      H1279   1.082       .  S
C1275      C1276   1.410   1_455  A
C1275      C1282   1.444       .  S
C1276      C1277   1.404       .  A
C1277      C1278   1.408       .  A
C1277      H1280   1.084       .  S
C1278      C1281   1.444       .  S
C1281      N1283   1.157       .  T
C1282      N1284   1.157       .  T
C1285      C1286   1.404   1_655  A
C1285      C1290   1.406       .  A
C1286      C1287   1.406       .  A
C1286      H1291   1.084       .  S
C1287      C1288   1.413       .  A
C1287      C1294   1.442       .  S
C1288      C1289   1.405   1_455  A
C1289      C1290   1.395       .  A
C1289      H1292   1.084       .  S
C1290      C1293   1.443   1_556  S
C1293      N1295   1.157       .  T
C1294      N1296   1.157       .  T
C1297      C1298   1.411   1_455  A
C1297      C1302   1.421       .  A
C1298      C1299   1.405       .  A
C1298      H1303   1.084       .  S
C1299      C1300   1.408   1_655  A
C1299      C1306   1.443       .  S
C1300      C1301   1.401       .  A
C1301      C1302   1.403       .  A
C1301      H1304   1.085   1_556  S
C1302      C1305   1.445       .  S
C1305      N1307   1.158       .  T
C1306      N1308   1.157       .  T
