geometry optimzed in LAMMPS
_audit_creation_date              2020-12-01 
_audit_creation_method            'lammps2cif' 
_symmetry_space_group_name_H-M    'P1' 
_symmetry_Int_Tables_number       1 
_symmetry_cell_setting            triclinic 
loop_ 
_symmetry_equiv_pos_as_xyz 
  x,y,z 
_cell_length_a                    41.39855768 
_cell_length_b                    35.4932808599911 
_cell_length_c                    32.34492100732263 
_cell_angle_alpha                 90.00988020227358 
_cell_angle_beta                  89.46833098312399 
_cell_angle_gamma                 88.69734653938677 
loop_ 
_atom_site_label 
_atom_site_type_symbol 
_atom_site_fract_x 
_atom_site_fract_y 
_atom_site_fract_z 
_atom_site_charge 
O1          O  0.31629012  0.20133774  0.04899460    -0.73400
O2          O  0.31713559  0.24233817  0.43364769    -0.74400
O3          O  0.36515095  0.22171043  0.49156012    -0.63000
O4          O  0.26699257  0.22101169  0.48932013    -0.71400
O5          O  0.26427526  0.27824927  0.01647740    -0.70900
O6          O  0.36236670  0.27948950  0.01793687    -0.62200
O7          O  0.31427829  0.29965330  0.46127382    -0.74700
O8          O  0.31346081  0.25853299  0.07652427    -0.73500
Cu9        Cu  0.31666809  0.21949934  0.49020962     1.04600
Cu10       Cu  0.31378982  0.28091711  0.01904510     1.04300
C11         C  0.31384300  0.22279661  0.08083480     0.92800
C12         C  0.31464649  0.27806192  0.42969220     0.92000
C13         C  0.37898293  0.25132267  0.00406991     0.84100
C14         C  0.25001220  0.24970548  0.50136692     0.90400
O15         O  0.19683255  0.27847556  0.00972900    -0.73400
O16         O  0.09866341  0.27764452  0.00744287    -0.74400
O17         O  0.14665923  0.25712687  0.06535499    -0.63000
O18         O  0.14751160  0.29810958  0.45006553    -0.71400
O19         O  0.15039990  0.24093421  0.42249339    -0.70900
O20         O  0.14961997  0.19979343  0.03778137    -0.62200
O21         O  0.10152943  0.21987704  0.48111054    -0.74700
O22         O  0.19959524  0.22125965  0.48253331    -0.73500
Cu23       Cu  0.14714358  0.27993140  0.00881115     1.04600
Cu24       Cu  0.15009970  0.21852834  0.47998219     1.04300
C25         C  0.21383560  0.24980086  0.99767112     0.92800
C26         C  0.08489583  0.24800004  0.99497242     0.92000
C27         C  0.14919688  0.22141340  0.06934429     0.84100
C28         C  0.14998201  0.27667619  0.41821139     0.90400
C29         C  0.16283967  0.29426601  0.37910185     0.86100
C30         C  0.19902831  0.29495276  0.38532494    -0.54200
C31         C  0.21639130  0.31411437  0.35671388     0.09000
C32         C  0.19482931  0.33007905  0.32203287     0.19900
C33         C  0.15217026  0.33517344  0.37390765    -0.54900
C34         C  0.16944621  0.35500999  0.34516332     0.09100
C35         C  0.15908008  0.27679496  0.33608539    -0.54400
C36         C  0.17585009  0.29564880  0.30564095     0.09600
H37         H  0.20958216  0.27949054  0.41083354     0.14200
H38         H  0.20848473  0.34500227  0.29783692    -0.00100
H39         H  0.13386083  0.34713708  0.39429399     0.14500
H40         H  0.14621427  0.25098103  0.33075829     0.14300
C41         C  0.15998232  0.20468762  0.10933549     0.86100
C42         C  0.19616879  0.19726433  0.10476335    -0.54200
C43         C  0.21145328  0.18322765  0.13877537     0.09000
C44         C  0.18729679  0.17359651  0.17335696     0.19900
C45         C  0.14636925  0.16700532  0.12002261    -0.54900
C46         C  0.16169875  0.14812495  0.15178023     0.09100
C47         C  0.15559302  0.22821710  0.14815531    -0.54400
C48         C  0.17013161  0.21262548  0.18193871     0.09600
H49         H  0.20826639  0.20383996  0.07595696     0.14200
H50         H  0.19841803  0.16083084  0.20122974    -0.00100
H51         H  0.12853190  0.15570881  0.09972961     0.14500
H52         H  0.14581334  0.25689369  0.14781895     0.14300
N53         N  0.16334286  0.25279473  0.24539359    -0.03900
C54         C  0.18076208  0.28042767  0.26297317    -0.01300
C55         C  0.20834787  0.28643888  0.23963529    -0.24200
C56         C  0.20862732  0.26034353  0.20820351    -0.24400
C57         C  0.18137514  0.23915281  0.21350348    -0.01400
H58         H  0.22737549  0.30594687  0.24586338     0.12400
H59         H  0.22663679  0.25740021  0.18389303     0.12400
C60         C  0.16378594  0.45658710  0.38291093     0.86100
C61         C  0.15276845  0.41683181  0.37587956    -0.54200
C62         C  0.16983608  0.39712839  0.34618126     0.09000
C63         C  0.19541174  0.42149433  0.32386182     0.19900
C64         C  0.19996763  0.45321458  0.38904880    -0.54900
C65         C  0.21737379  0.43538864  0.35860509     0.09100
C66         C  0.16011158  0.47617048  0.34099450    -0.54400
C67         C  0.17667483  0.45768177  0.30954802     0.09600
H68         H  0.13445531  0.40530750  0.39588023     0.14200
H69         H  0.20881480  0.40678759  0.29876929    -0.00100
H70         H  0.21018384  0.46610422  0.41597674     0.14500
H71         H  0.14748193  0.50303698  0.33719682     0.14300
C72         C  0.15782186  0.04677419  0.11287752     0.86100
C73         C  0.14586399  0.08649207  0.12106158    -0.54200
C74         C  0.16157865  0.10522870  0.15205505     0.09000
C75         C  0.18644017  0.07851598  0.17476283     0.19900
C76         C  0.19412036  0.04996767  0.10800485    -0.54900
C77         C  0.21010544  0.06535402  0.14024516     0.09100
C78         C  0.15256555  0.02593756  0.15323487    -0.54400
C79         C  0.16784695  0.04168925  0.18611452     0.09600
H80         H  0.12837922  0.09862712  0.10019905     0.14200
H81         H  0.19815840  0.09170641  0.20164082    -0.00100
H82         H  0.20547756  0.04004962  0.07977883     0.14500
H83         H  0.14205663  0.99817012  0.15447521     0.14300
N84         N  0.16331606  0.50329397  0.25188546    -0.03900
C85         C  0.18145402  0.47458229  0.26791274    -0.01300
C86         C  0.20751853  0.46611173  0.24232261    -0.24200
C87         C  0.20643037  0.99174409  0.21063544    -0.24400
C88         C  0.17980177  0.01500289  0.21789521    -0.01400
H89         H  0.22622433  0.44479163  0.24673219     0.12400
H90         H  0.22299479  0.99287537  0.18460890     0.12400
O91         O  0.26612291  0.47077372  0.01458237    -0.73400
O92         O  0.36563458  0.46989739  0.01498896    -0.74400
O93         O  0.31536357  0.49008545  0.07348574    -0.63000
O94         O  0.31773837  0.44874309  0.45834546    -0.71400
O95         O  0.31674284  0.00585783  0.43040295    -0.70900
O96         O  0.31357984  0.04722764  0.04562361    -0.62200
O97         O  0.36306599  0.02768143  0.48876130    -0.74700
O98         O  0.26563830  0.02771009  0.48666293    -0.73500
Cu99       Cu  0.31644347  0.46778139  0.01626990     1.04600
Cu100      Cu  0.31498220  0.02906182  0.48711689     1.04300
C101        C  0.25012515  0.49946021  0.50031467     0.92800
C102        C  0.37959330  0.49927865  0.50133167     0.92000
C103        C  0.31302083  0.02577179  0.07749227     0.84100
C104        C  0.31686319  0.47004244  0.42651731     0.90400
O105        O  0.14597742  0.05069228  0.04149497    -0.73400
O106        O  0.14843511  0.00937405  0.42635440    -0.74400
O107        O  0.09814308  0.02944534  0.48482218    -0.63000
O108        O  0.19766173  0.02875548  0.48526904    -0.71400
O109        O  0.19819621  0.47179586  0.01313075    -0.70900
O110        O  0.10079200  0.47168077  0.01109278    -0.62200
O111        O  0.15025476  0.45222915  0.45417859    -0.74700
O112        O  0.14711825  0.49360071  0.06944921    -0.73500
Cu113      Cu  0.14732636  0.03165931  0.48356469     1.04600
Cu114      Cu  0.14886984  0.47037783  0.01270878     1.04300
C115        C  0.14691470  0.02941495  0.07333458     0.92800
C116        C  0.15079120  0.47371202  0.42232640     0.92000
C117        C  0.08422007  0.00003747  0.49849512     0.84100
C118        C  0.21364454  0.50010790  0.49951159     0.90400
C119        C  0.30595816  0.45277402  0.38693110     0.86100
C120        C  0.26966757  0.44951733  0.39180471    -0.54200
C121        C  0.25368955  0.43427117  0.35947795     0.09000
C122        C  0.27735236  0.42125770  0.32489557     0.19900
C123        C  0.31794096  0.41310053  0.37856424    -0.54900
C124        C  0.30223171  0.39447592  0.34747456     0.09100
C125        C  0.31118522  0.47377666  0.34666802    -0.54400
C126        C  0.29591985  0.45813486  0.31371856     0.09600
H127        H  0.25830875  0.45926975  0.42009959     0.14200
H128        H  0.26563709  0.40816590  0.29795710    -0.00100
H129        H  0.33542226  0.40089831  0.39938690     0.14500
H130        H  0.32168840  0.50155086  0.34554276     0.14300
C131        C  0.30001711  0.04296319  0.11686437     0.86100
C132        C  0.26383544  0.04636354  0.11070155    -0.54200
C133        C  0.24642855  0.06425122  0.14110503     0.09000
C134        C  0.26840096  0.07821897  0.17580482     0.19900
C135        C  0.31106840  0.08271540  0.12379664    -0.54900
C136        C  0.29399159  0.10251648  0.15339850     0.09100
C137        C  0.30367012  0.02347034  0.15882632    -0.54400
C138        C  0.28712295  0.04204881  0.19022332     0.09600
H139        H  0.25362427  0.03346420  0.08377778     0.14200
H140        H  0.25500757  0.09299299  0.20086025    -0.00100
H141        H  0.32940092  0.09417228  0.10377694     0.14500
H142        H  0.31628950  0.99660671  0.16269507     0.14300
N143        N  0.30045511  0.49652275  0.24795100    -0.03900
C144        C  0.28400658  0.48489393  0.28198789    -0.01300
C145        C  0.25742897  0.50822862  0.28926946    -0.24200
C146        C  0.25635733  0.03382283  0.25755264    -0.24400
C147        C  0.28237896  0.02525746  0.23192150    -0.01400
H148        H  0.24087564  0.50714309  0.31531217     0.12400
H149        H  0.23767717  0.05517355  0.25313732     0.12400
C150        C  0.30384728  0.29487553  0.38974641     0.86100
C151        C  0.31746131  0.33258932  0.37920005    -0.54200
C152        C  0.30212229  0.35158089  0.34753555     0.09000
C153        C  0.27652152  0.32618256  0.32585536     0.19900
C154        C  0.26765609  0.30228274  0.39434740    -0.54900
C155        C  0.25236296  0.31642925  0.36039180     0.09100
C156        C  0.30823596  0.27147602  0.35083684    -0.54400
C157        C  0.29369384  0.28718415  0.31711314     0.09600
H158        H  0.33531504  0.34381439  0.39951818     0.14200
H159        H  0.26539878  0.33904153  0.29803275    -0.00100
H160        H  0.25556276  0.29560691  0.42312666     0.14500
H161        H  0.31800617  0.24279403  0.35106827     0.14300
C162        C  0.30097619  0.20527961  0.11998180     0.86100
C163        C  0.31161974  0.16437801  0.12530446    -0.54200
C164        C  0.29434405  0.14464086  0.15414586     0.09000
C165        C  0.26896391  0.16964534  0.17717010     0.19900
C166        C  0.26479063  0.20459693  0.11375678    -0.54900
C167        C  0.24741939  0.18552619  0.14243364     0.09100
C168        C  0.30473443  0.22286540  0.16294839    -0.54400
C169        C  0.28794501  0.20410628  0.19344653     0.09600
H170        H  0.32991795  0.15234917  0.10494678     0.14200
H171        H  0.25529622  0.15479368  0.20140879    -0.00100
H172        H  0.25424409  0.21999889  0.08819956     0.14500
H173        H  0.31760053  0.24869301  0.16819795     0.14300
N174        N  0.30044724  0.24703879  0.25362947    -0.03900
C175        C  0.28298231  0.21945281  0.23604359    -0.01300
C176        C  0.25535322  0.21354663  0.25932766    -0.24200
C177        C  0.25509804  0.23965526  0.29073776    -0.24400
C178        C  0.28240945  0.26075046  0.28548418    -0.05400
H179        H  0.23629900  0.19407572  0.25309771     0.12400
H180        H  0.23708099  0.24263840  0.31503219     0.12400
O181        O  0.11256160  0.27993163  0.23152669    -0.73400
O182        O  0.01437414  0.27832129  0.23233171    -0.74400
O183        O  0.06350993  0.30049683  0.28759309    -0.63000
O184        O  0.06450818  0.25854444  0.17230393    -0.71400
O185        O  0.06661555  0.20154560  0.20026554    -0.70900
O186        O  0.06634775  0.24321252  0.31520793    -0.62200
O187        O  0.01686355  0.22131375  0.26010276    -0.74700
O188        O  0.11472615  0.22210130  0.25772914    -0.73500
Cu189      Cu  0.06393628  0.28129330  0.22989619     1.04600
Cu190      Cu  0.06640759  0.21998158  0.25898846     1.04300
C191        C  0.12881976  0.25172818  0.24563040     0.92800
C192        C  0.50000451  0.24979161  0.24773296     0.92000
C193        C  0.06379037  0.27894024  0.31917864     0.84100
C194        C  0.06464808  0.22277497  0.16823522     0.90400
O195        O  0.39723009  0.29804093  0.29882198    -0.73400
O196        O  0.39751590  0.25638187  0.18384080    -0.74400
O197        O  0.34912039  0.27760995  0.24128797    -0.63000
O198        O  0.44696968  0.27820378  0.23901066    -0.71400
O199        O  0.44939935  0.22118447  0.26675813    -0.70900
O200        O  0.35118408  0.21978444  0.26751079    -0.62200
O201        O  0.40023087  0.19910802  0.21149611    -0.74700
O202        O  0.39925021  0.24102345  0.32674893    -0.73500
Cu203      Cu  0.39744226  0.27962336  0.24007578     1.04600
Cu204      Cu  0.39981454  0.21830734  0.26916791     1.04300
C205        C  0.39915842  0.27678612  0.33083917     0.92800
C206        C  0.40001284  0.22064486  0.17989901     0.92000
C207        C  0.33497407  0.24802358  0.25340025     0.84100
C208        C  0.46379953  0.24970398  0.25137602     0.90400
C209        C  0.41145405  0.29469394  0.36994937     0.86100
C210        C  0.39983979  0.33516457  0.37515942    -0.54200
C211        C  0.41610740  0.35589184  0.40373799     0.09000
C212        C  0.44220152  0.33188171  0.42655401     0.19900
C213        C  0.44757047  0.29648169  0.36328092    -0.54900
C214        C  0.46441194  0.31580092  0.39188831     0.09100
C215        C  0.40793132  0.27725444  0.41316446    -0.54400
C216        C  0.42413398  0.29676204  0.44333790     0.09600
H217        H  0.38126100  0.34604466  0.35500279     0.14200
H218        H  0.45537875  0.34766273  0.45031762    -0.00100
H219        H  0.45860767  0.28071253  0.33805103     0.14500
H220        H  0.39598110  0.25081853  0.41868129     0.14300
C221        C  0.41119096  0.20408008  0.13978313     0.86100
C222        C  0.39795950  0.16626758  0.12836514    -0.54200
C223        C  0.41411769  0.14835829  0.09619926     0.09000
C224        C  0.43958546  0.17447856  0.07509778     0.19900
C225        C  0.44739251  0.19686862  0.14415600    -0.54900
C226        C  0.46322068  0.18321707  0.10997528     0.09100
C227        C  0.40710743  0.22821610  0.10146071    -0.54400
C228        C  0.42197042  0.21328908  0.06730630     0.09600
H229        H  0.38025637  0.15378970  0.14852368     0.14200
H230        H  0.45111075  0.16248939  0.04685929    -0.00100
H231        H  0.45901917  0.20261316  0.17324344     0.14500
H232        H  0.39681375  0.25665524  0.10224061     0.14300
N233        N  0.41350130  0.25305428  0.00373478    -0.03900
C234        C  0.43210947  0.23998484  0.03504101    -0.01300
C235        C  0.45904465  0.26179839  0.03907748    -0.24200
C236        C  0.45792404  0.28779610  0.50758042    -0.24400
C237        C  0.43020649  0.28109079  0.48544628    -0.01400
H238        H  0.47736204  0.25930009  0.06264049     0.12400
H239        H  0.47639863  0.30789570  0.50066245     0.12400
C240        C  0.41082693  0.45400803  0.36043128     0.86100
C241        C  0.44706305  0.44712400  0.35563421    -0.54200
C242        C  0.46272937  0.43331078  0.38953173     0.09000
C243        C  0.43889348  0.42436707  0.42471163     0.19900
C244        C  0.39789571  0.41611941  0.37174853    -0.54900
C245        C  0.41373154  0.39830359  0.40377530     0.09100
C246        C  0.40637912  0.47800758  0.39910204    -0.54400
C247        C  0.42103232  0.46292774  0.43311842     0.09600
H248        H  0.45872478  0.45296501  0.32635142     0.14200
H249        H  0.45029612  0.41233647  0.45274345    -0.00100
H250        H  0.38083200  0.40350666  0.35126132     0.14500
H251        H  0.39611430  0.50645267  0.39857343     0.14300
C252        C  0.41185001  0.04481127  0.13069725     0.86100
C253        C  0.44783375  0.04734329  0.13727695    -0.54200
C254        C  0.46487249  0.06622199  0.10815220     0.09000
C255        C  0.44286320  0.08158574  0.07341130     0.19900
C256        C  0.39966035  0.08508608  0.12485919    -0.54900
C257        C  0.41632426  0.10577571  0.09611325     0.09100
C258        C  0.40904107  0.02664637  0.08813822    -0.54400
C259        C  0.42524575  0.04585007  0.05755724     0.09600
H260        H  0.45864217  0.03215807  0.16278596     0.14200
H261        H  0.45612685  0.09710198  0.04919444    -0.00100
H262        H  0.38040084  0.09589860  0.14454048     0.14500
H263        H  0.39747629  0.99990152  0.08337738     0.14300
N264        N  0.41419109  0.00094856  0.49883383    -0.03900
C265        C  0.43119256  0.02930312  0.01584168    -0.01300
C266        C  0.45805944  0.03683803  0.99181089    -0.24200
C267        C  0.45824720  0.51148215  0.45976478    -0.24400
C268        C  0.43160930  0.48929426  0.46531988    -0.01400
H269        H  0.47635912  0.05737339  0.99754494     0.12400
H270        H  0.47571280  0.50975449  0.43468404     0.12400
O271        O  0.01704590  0.47156166  0.23903122    -0.73400
O272        O  0.11423421  0.47434763  0.24187444    -0.74400
O273        O  0.06631513  0.45213500  0.29809176    -0.63000
O274        O  0.06682120  0.49389208  0.18378594    -0.71400
O275        O  0.06376915  0.05131724  0.21111317    -0.70900
O276        O  0.06396543  0.00897016  0.32658009    -0.62200
O277        O  0.11285769  0.03214372  0.26825734    -0.74700
O278        O  0.01414592  0.02855839  0.26687198    -0.73500
Cu279      Cu  0.06642969  0.47105558  0.24005573     1.04600
Cu280      Cu  0.06380335  0.03233715  0.26928079     1.04300
C281        C  0.49997977  0.49993114  0.25156821     0.92800
C282        C  0.12875817  0.50348736  0.25436858     0.92000
C283        C  0.06428069  0.47311038  0.33023595     0.84100
C284        C  0.06412155  0.02953301  0.17958549     0.90400
O285        O  0.44963636  0.47096757  0.23293964    -0.73400
O286        O  0.35089766  0.46757252  0.23155517    -0.74400
O287        O  0.39982621  0.49059750  0.17323431    -0.63000
O288        O  0.39996164  0.44830994  0.28867570    -0.71400
O289        O  0.39703511  0.00570695  0.31604451    -0.70900
O290        O  0.39752680  0.04745124  0.20168700    -0.62200
O291        O  0.34960672  0.02535245  0.25797173    -0.74700
O292        O  0.44678544  0.02798065  0.26074013    -0.73500
Cu293      Cu  0.39995911  0.46727403  0.23052927     1.04600
Cu294      Cu  0.39741487  0.02855415  0.25975296     1.04300
C295        C  0.46380350  0.49958943  0.24822148     0.92800
C296        C  0.33501427  0.49625579  0.24545970     0.92000
C297        C  0.39953311  0.02644725  0.16955925     0.84100
C298        C  0.39966060  0.47007756  0.32021206     0.90400
C299        C  0.05261790  0.29542570  0.35933983     0.86100
C300        C  0.01641812  0.30262637  0.35499358    -0.54200
C301        C  0.00059085  0.31617948  0.38921720     0.09000
C302        C  0.02421906  0.32482578  0.42413424     0.19900
C303        C  0.06582647  0.33322036  0.37087950    -0.54900
C304        C  0.04967317  0.35102246  0.40312858     0.09100
C305        C  0.05671509  0.27118403  0.39758683    -0.54400
C306        C  0.04184664  0.28599795  0.43179236     0.09600
H307        H  0.50479112  0.29696012  0.32588647     0.14200
H308        H  0.01268987  0.33673808  0.45240576    -0.00100
H309        H  0.08351039  0.34576832  0.35074836     0.14500
H310        H  0.06703366  0.24275848  0.39671774     0.14300
C311        C  0.05235894  0.20479541  0.12915576     0.86100
C312        C  0.01624189  0.20300892  0.13582562    -0.54200
C313        C  0.99940447  0.18361189  0.10727898     0.09000
C314        C  0.02162562  0.16745572  0.07265604     0.19900
C315        C  0.06398791  0.16431551  0.12405352    -0.54900
C316        C  0.04771893  0.14350152  0.09555772     0.09100
C317        C  0.05588485  0.22213293  0.08589550    -0.54400
C318        C  0.03969854  0.20254715  0.05576784     0.09600
H319        H  0.50520072  0.21883099  0.16101281     0.14200
H320        H  0.00845430  0.15161252  0.04893678    -0.00100
H321        H  0.08257738  0.15349311  0.14422882     0.14500
H322        H  0.06784363  0.24855113  0.08030785     0.14300
N323        N  0.05038170  0.24620568  0.99532341    -0.03900
C324        C  0.03176061  0.25920628  0.46400308    -0.01300
C325        C  0.00490184  0.23727247  0.45991110    -0.24200
C326        C  0.00602945  0.21129523  0.99137278    -0.24400
C327        C  0.03369259  0.21810564  0.01358187    -0.01400
H328        H  0.98659673  0.23971092  0.43632577     0.12400
H329        H  0.98757877  0.19115805  0.99827800     0.12400
C330        C  0.05196075  0.45467636  0.36905965     0.86100
C331        C  0.06415685  0.41438862  0.37478187    -0.54200
C332        C  0.04748562  0.39361163  0.40343607     0.09000
C333        C  0.02094951  0.41774926  0.42622844     0.19900
C334        C  0.01597569  0.45215899  0.36247048    -0.54900
C335        C  0.99893359  0.43320957  0.39153517     0.09100
C336        C  0.05477191  0.47273239  0.41166994    -0.54400
C337        C  0.03857658  0.45344898  0.44219935     0.09600
H338        H  0.08343040  0.40363384  0.35508646     0.14200
H339        H  0.00768763  0.40216866  0.45039617    -0.00100
H340        H  0.50517078  0.46740228  0.33700109     0.14500
H341        H  0.06634403  0.49946048  0.41650620     0.14300
C342        C  0.05296093  0.04552466  0.13932308     0.86100
C343        C  0.06589954  0.08337335  0.12785021    -0.54200
C344        C  0.05007104  0.10108139  0.09573690     0.09000
C345        C  0.02490079  0.07494984  0.07491817     0.19900
C346        C  0.01673216  0.05244221  0.14410211    -0.54900
C347        C  0.00107021  0.06613597  0.11014765     0.09100
C348        C  0.05739523  0.02139071  0.10074533    -0.54400
C349        C  0.04274645  0.03635240  0.06667059     0.09600
H350        H  0.08295636  0.09605122  0.14829679     0.14200
H351        H  0.01349646  0.08689110  0.04684434    -0.00100
H352        H  0.50506804  0.04671313  0.17341282     0.14500
H353        H  0.06766509  0.99295007  0.10137942     0.14300
N354        N  0.04966505  0.99829891  0.50096737    -0.03900
C355        C  0.03267532  0.46988833  0.48398661    -0.01300
C356        C  0.00585808  0.46224906  0.50806985    -0.24200
C357        C  0.00564592  0.98759681  0.04013434    -0.24400
C358        C  0.03221612  0.00988659  0.03453041    -0.01400
H359        H  0.98758989  0.44167205  0.50234067     0.12400
H360        H  0.98819280  0.98928028  0.06523248     0.12400
O361        O  0.31627395  0.20134195  0.54898972    -0.73400
O362        O  0.31717512  0.24232240  0.93364426    -0.74400
O363        O  0.36518092  0.22171192  0.99156907    -0.63000
O364        O  0.26702008  0.22098624  0.98930577    -0.71400
O365        O  0.26425663  0.27827431  0.51649440    -0.70900
O366        O  0.36234673  0.27948622  0.51793414    -0.62200
O367        O  0.31430654  0.29963778  0.96126893    -0.74700
O368        O  0.31345374  0.25853443  0.57652727    -0.73500
Cu369      Cu  0.31669762  0.21948754  0.99020866     1.04600
Cu370      Cu  0.31377162  0.28092751  0.51905129     1.04300
C371        C  0.31384059  0.22279711  0.58083338     0.92800
C372        C  0.31468474  0.27804614  0.92968798     0.92000
C373        C  0.37895792  0.25131512  0.50406799     0.84100
C374        C  0.25003453  0.24967584  0.00135394     0.90400
O375        O  0.19681155  0.27851119  0.50973232    -0.73400
O376        O  0.09864492  0.27765891  0.50746183    -0.74400
O377        O  0.14665328  0.25714319  0.56536211    -0.63000
O378        O  0.14754589  0.29808239  0.95005563    -0.71400
O379        O  0.15042718  0.24090777  0.92248200    -0.70900
O380        O  0.14961997  0.19981271  0.53778103    -0.62200
O381        O  0.10154181  0.21985993  0.98109911    -0.74700
O382        O  0.19961316  0.22122278  0.98253398    -0.73500
Cu383      Cu  0.14712317  0.27995574  0.50882141     1.04600
Cu384      Cu  0.15011390  0.21850252  0.97997698     1.04300
C385        C  0.21381521  0.24983660  0.49767588     0.92800
C386        C  0.08488112  0.24801394  0.49498662     0.92000
C387        C  0.14920208  0.22142965  0.56934564     0.84100
C388        C  0.15001837  0.27665047  0.91820094     0.90400
C389        C  0.16288160  0.29424517  0.87909440     0.86100
C390        C  0.19906885  0.29493357  0.88532182    -0.54200
C391        C  0.21643199  0.31410058  0.85671523     0.09000
C392        C  0.19487285  0.33007122  0.82203434     0.19900
C393        C  0.15221172  0.33515399  0.87390637    -0.54900
C394        C  0.16948461  0.35499569  0.84516280     0.09100
C395        C  0.15912702  0.27678198  0.83607270    -0.54400
C396        C  0.17589766  0.29564408  0.80563389     0.09600
H397        H  0.20962195  0.27946683  0.91082797     0.14200
H398        H  0.20853030  0.34499890  0.79784331    -0.00100
H399        H  0.13389988  0.34711315  0.89429187     0.14500
H400        H  0.14626216  0.25096888  0.83073779     0.14300
C401        C  0.15999409  0.20470048  0.60933220     0.86100
C402        C  0.19618026  0.19726735  0.60475707    -0.54200
C403        C  0.21146400  0.18322934  0.63877160     0.09000
C404        C  0.18730730  0.17360618  0.67335279     0.19900
C405        C  0.14637496  0.16702258  0.62002271    -0.54900
C406        C  0.16170380  0.14813991  0.65177892     0.09100
C407        C  0.15561167  0.22823236  0.64815000    -0.54400
C408        C  0.17015257  0.21264079  0.68193065     0.09600
H409        H  0.20827776  0.20383972  0.57594932     0.14200
H410        H  0.19842693  0.16083996  0.70122638    -0.00100
H411        H  0.12853470  0.15572936  0.59973182     0.14500
H412        H  0.14583675  0.25691111  0.64781310     0.14300
N413        N  0.16338040  0.25281582  0.74537631    -0.03900
C414        C  0.18080639  0.28043774  0.76296061    -0.01300
C415        C  0.20839356  0.28644261  0.73962231    -0.24200
C416        C  0.20866520  0.26035024  0.70818596    -0.24400
C417        C  0.18140696  0.23916925  0.71348595    -0.01400
H418        H  0.22742673  0.30594227  0.74585448     0.12400
H419        H  0.22667394  0.25740149  0.68387533     0.12400
C420        C  0.16379194  0.45657027  0.88289674     0.86100
C421        C  0.15277679  0.41681533  0.87585563    -0.54200
C422        C  0.16985001  0.39711645  0.84615821     0.09000
C423        C  0.19542233  0.42149118  0.82384190     0.19900
C424        C  0.19997378  0.45319601  0.88903823    -0.54900
C425        C  0.21738272  0.43537816  0.85859102     0.09100
C426        C  0.16011851  0.47616187  0.84098626    -0.54400
C427        C  0.17668272  0.45768202  0.80953601     0.09600
H428        H  0.13446786  0.40528461  0.89585785     0.14200
H429        H  0.20882586  0.40679077  0.79874515    -0.00100
H430        H  0.21018709  0.46607030  0.91597676     0.14500
H431        H  0.14748729  0.50302831  0.83719528     0.14300
C432        C  0.15781996  0.04679178  0.61287085     0.86100
C433        C  0.14586496  0.08651014  0.62105642    -0.54200
C434        C  0.16158080  0.10524412  0.65205076     0.09000
C435        C  0.18644164  0.07852955  0.67475629     0.19900
C436        C  0.19411907  0.04998260  0.60799651    -0.54900
C437        C  0.21010583  0.06536847  0.64023669     0.09100
C438        C  0.15256459  0.02595403  0.65322854    -0.54400
C439        C  0.16784688  0.04170389  0.68610874     0.09600
H440        H  0.12838169  0.09864781  0.60019350     0.14200
H441        H  0.19816115  0.09171869  0.70163402    -0.00100
H442        H  0.20547523  0.04005919  0.57977219     0.14500
H443        H  0.14205485  0.99818708  0.65446858     0.14300
N444        N  0.16331946  0.50331694  0.75189330    -0.03900
C445        C  0.18145724  0.47459636  0.76790545    -0.01300
C446        C  0.20751539  0.46612813  0.74230429    -0.24200
C447        C  0.20642544  0.99175213  0.71062453    -0.24400
C448        C  0.17980146  0.01501680  0.71789051    -0.01400
H449        H  0.22621790  0.44480134  0.74669952     0.12400
H450        H  0.22298379  0.99287662  0.68459114     0.12400
O451        O  0.26611262  0.47080041  0.51460220    -0.73400
O452        O  0.36562404  0.46989726  0.51499534    -0.74400
O453        O  0.31535984  0.49010531  0.57349716    -0.63000
O454        O  0.31775694  0.44873448  0.95833224    -0.71400
O455        O  0.31674777  0.00584108  0.93040472    -0.70900
O456        O  0.31358687  0.04723274  0.54562833    -0.62200
O457        O  0.36306246  0.02767442  0.98876578    -0.74700
O458        O  0.26564109  0.02769013  0.98665484    -0.73500
Cu459      Cu  0.31643224  0.46779564  0.51628297     1.04600
Cu460      Cu  0.31498162  0.02904946  0.98711498     1.04300
C461        C  0.25013301  0.49943332  0.00029811     0.92800
C462        C  0.37959923  0.49928152  0.00132418     0.92000
C463        C  0.31302158  0.02577235  0.57749302     0.84100
C464        C  0.31687349  0.47003456  0.92650509     0.90400
O465        O  0.14596667  0.05070843  0.54148780    -0.73400
O466        O  0.14844157  0.00937256  0.92635973    -0.74400
O467        O  0.09814802  0.02943983  0.98483352    -0.63000
O468        O  0.19766940  0.02873960  0.98527309    -0.71400
O469        O  0.19819054  0.47182026  0.51314602    -0.70900
O470        O  0.10078804  0.47168442  0.51110780    -0.62200
O471        O  0.15025696  0.45221032  0.95416377    -0.74700
O472        O  0.14711213  0.49361004  0.56946459    -0.73500
Cu473      Cu  0.14733439  0.03164939  0.98357215     1.04600
Cu474      Cu  0.14886564  0.47039200  0.51272408     1.04300
C475        C  0.14690792  0.02943293  0.57332927     0.92800
C476        C  0.15079423  0.47369320  0.92231185     0.92000
C477        C  0.08422033  0.00003338  0.99850404     0.84100
C478        C  0.21365268  0.50008056  0.99949333     0.90400
C479        C  0.30596718  0.45276301  0.88692258     0.86100
C480        C  0.26967594  0.44950930  0.89179431    -0.54200
C481        C  0.25369908  0.43425489  0.85947089     0.09000
C482        C  0.27736422  0.42123414  0.82489354     0.19900
C483        C  0.31795032  0.41308892  0.87856783    -0.54900
C484        C  0.30224634  0.39445981  0.84747938     0.09100
C485        C  0.31119607  0.47375717  0.84665437    -0.54400
C486        C  0.29592923  0.45811025  0.81370833     0.09600
H487        H  0.25831598  0.45927732  0.92008191     0.14200
H488        H  0.26565008  0.40813608  0.79795797    -0.00100
H489        H  0.33543100  0.40089064  0.89939405     0.14500
H490        H  0.32169775  0.50153197  0.84552403     0.14300
C491        C  0.30001683  0.04296049  0.61686543     0.86100
C492        C  0.26383666  0.04638116  0.61069158    -0.54200
C493        C  0.24642958  0.06426302  0.64109862     0.09000
C494        C  0.26840188  0.07821376  0.67580784     0.19900
C495        C  0.31108194  0.08270468  0.62381483    -0.54900
C496        C  0.29400263  0.10250800  0.65341231     0.09100
C497        C  0.30365584  0.02345371  0.65882109    -0.54400
C498        C  0.28711205  0.04203179  0.69022026     0.09600
H499        H  0.25362593  0.03350110  0.58375627     0.14200
H500        H  0.25500983  0.09298653  0.70086548    -0.00100
H501        H  0.32942183  0.09415854  0.60380426     0.14500
H502        H  0.31626771  0.99658494  0.66268518     0.14300
N503        N  0.30045088  0.49650160  0.74794260    -0.03900
C504        C  0.28400693  0.48486767  0.78198090    -0.01300
C505        C  0.25743397  0.50820634  0.78927693    -0.24200
C506        C  0.25635597  0.03381047  0.75755795    -0.24400
C507        C  0.28237049  0.02523719  0.73191820    -0.01400
H508        H  0.24088732  0.50712078  0.81532639     0.12400
H509        H  0.23767829  0.05516498  0.75314656     0.12400
C510        C  0.30388809  0.29485949  0.88974248     0.86100
C511        C  0.31749862  0.33257614  0.87919625    -0.54200
C512        C  0.30215501  0.35156586  0.84753314     0.09000
C513        C  0.27655837  0.32616528  0.82585440     0.19900
C514        C  0.26769633  0.30226246  0.89434487    -0.54900
C515        C  0.25240252  0.31641048  0.86039133     0.09100
C516        C  0.30827814  0.27146156  0.85083289    -0.54400
C517        C  0.29373375  0.28717038  0.81711138     0.09600
H518        H  0.33535060  0.34380505  0.89951475     0.14200
H519        H  0.26543502  0.33902266  0.79803148    -0.00100
H520        H  0.25560278  0.29558496  0.92312377     0.14500
H521        H  0.31804943  0.24278010  0.85106291     0.14300
C522        C  0.30098512  0.20527531  0.61998176     0.86100
C523        C  0.31162387  0.16436952  0.62529653    -0.54200
C524        C  0.29435105  0.14463392  0.65414400     0.09000
C525        C  0.26897643  0.16964179  0.67717259     0.19900
C526        C  0.26479933  0.20460138  0.61376550    -0.54900
C527        C  0.24742971  0.18552816  0.64243857     0.09100
C528        C  0.30475432  0.22285577  0.66294844    -0.54400
C529        C  0.28796746  0.20409710  0.69344829     0.09600
H530        H  0.32991829  0.15233930  0.60493403     0.14200
H531        H  0.25530891  0.15479062  0.70141201    -0.00100
H532        H  0.25424978  0.22000973  0.58821443     0.14500
H533        H  0.31762612  0.24867954  0.66819794     0.14300
N534        N  0.30048561  0.24702302  0.75363326    -0.03900
C535        C  0.28301533  0.21944039  0.73604761    -0.01300
C536        C  0.25538253  0.21354461  0.75932787    -0.24200
C537        C  0.25513082  0.23965347  0.79073621    -0.24400
C538        C  0.28244746  0.26073916  0.78548455    -0.05400
H539        H  0.23632284  0.19408181  0.75309498     0.12400
H540        H  0.23711228  0.24264317  0.81502777     0.12400
O541        O  0.11259970  0.27995782  0.73151586    -0.73400
O542        O  0.01441193  0.27833668  0.73233797    -0.74400
O543        O  0.06355074  0.30053847  0.78758422    -0.63000
O544        O  0.06453923  0.25854560  0.67230761    -0.71400
O545        O  0.06664867  0.20155289  0.70028368    -0.70900
O546        O  0.06640337  0.24325770  0.81520661    -0.62200
O547        O  0.01690982  0.22133708  0.76012790    -0.74700
O548        O  0.11476623  0.22212964  0.75772466    -0.73500
Cu549      Cu  0.06397344  0.28131548  0.72989265     1.04600
Cu550      Cu  0.06645205  0.22000947  0.75899887     1.04300
C551        C  0.12885827  0.25175458  0.74562016     0.92800
C552        C  0.50004663  0.24980747  0.74774803     0.92000
C553        C  0.06383695  0.27898497  0.81917248     0.84100
C554        C  0.06467610  0.22277470  0.66824814     0.90400
O555        O  0.39727735  0.29803368  0.79883074    -0.73400
O556        O  0.39754934  0.25638053  0.68385126    -0.74400
O557        O  0.34915880  0.27760072  0.74130190    -0.63000
O558        O  0.44700895  0.27820649  0.73901684    -0.71400
O559        O  0.44944403  0.22118785  0.76676541    -0.70900
O560        O  0.35122541  0.21977382  0.76751979    -0.62200
O561        O  0.40026788  0.19910648  0.71150557    -0.74700
O562        O  0.39929725  0.24101577  0.82675750    -0.73500
Cu563      Cu  0.39748203  0.27961973  0.74008599     1.04600
Cu564      Cu  0.39985774  0.21830320  0.76917652     1.04300
C565        C  0.39920891  0.27677816  0.83084676     0.92800
C566        C  0.40003997  0.22064329  0.67990853     0.92000
C567        C  0.33501352  0.24801057  0.75340662     0.84100
C568        C  0.46384164  0.24971074  0.75138596     0.90400
C569        C  0.41150416  0.29468661  0.86995505     0.86100
C570        C  0.39987999  0.33515329  0.87516616    -0.54200
C571        C  0.41614119  0.35588551  0.90374625     0.09000
C572        C  0.44224111  0.33188365  0.92656132     0.19900
C573        C  0.44762020  0.29648553  0.86328708    -0.54900
C574        C  0.46445576  0.31581289  0.89189353     0.09100
C575        C  0.40798360  0.27724541  0.91316808    -0.54400
C576        C  0.42417953  0.29675828  0.94334226     0.09600
H577        H  0.38129886  0.34602693  0.85500951     0.14200
H578        H  0.45541423  0.34766684  0.95032753    -0.00100
H579        H  0.45866301  0.28071968  0.83805787     0.14500
H580        H  0.39603659  0.25080736  0.91868476     0.14300
C581        C  0.41120910  0.20407824  0.63979032     0.86100
C582        C  0.39798904  0.16625617  0.62838734    -0.54200
C583        C  0.41414396  0.14834932  0.59621733     0.09000
C584        C  0.43960028  0.17447727  0.57510306     0.19900
C585        C  0.44741221  0.19688608  0.64415312    -0.54900
C586        C  0.46323916  0.18323142  0.60997547     0.09100
C587        C  0.40710701  0.22820462  0.60146355    -0.54400
C588        C  0.42196678  0.21327933  0.56730535     0.09600
H589        H  0.38029186  0.15377525  0.64855271     0.14200
H590        H  0.45112492  0.16248487  0.54686615    -0.00100
H591        H  0.45903987  0.20263679  0.67323814     0.14500
H592        H  0.39680285  0.25663877  0.60224225     0.14300
N593        N  0.41347606  0.25304294  0.50372661    -0.03900
C594        C  0.43209000  0.23998120  0.53503399    -0.01300
C595        C  0.45901341  0.26181364  0.53907326    -0.24200
C596        C  0.45796552  0.28778033  0.00758324    -0.24400
C597        C  0.43024261  0.28109223  0.98545300    -0.01400
H598        H  0.47733072  0.25932651  0.56263763     0.12400
H599        H  0.47644929  0.30786749  0.00066027     0.12400
C600        C  0.41083276  0.45399582  0.86043720     0.86100
C601        C  0.44706973  0.44711809  0.85563511    -0.54200
C602        C  0.46274134  0.43330934  0.88953137     0.09000
C603        C  0.43891045  0.42436740  0.92471691     0.19900
C604        C  0.39790799  0.41610624  0.87176292    -0.54900
C605        C  0.41375103  0.39829633  0.90378800     0.09100
C606        C  0.40638590  0.47799908  0.89910553    -0.54400
C607        C  0.42104486  0.46292643  0.93312157     0.09600
H608        H  0.45872739  0.45295896  0.82634966     0.14200
H609        H  0.45031691  0.41234170  0.95274845    -0.00100
H610        H  0.38084346  0.40348840  0.85128081     0.14500
H611        H  0.39611607  0.50644172  0.89857492     0.14300
C612        C  0.41186499  0.04479646  0.63069290     0.86100
C613        C  0.44784960  0.04732306  0.63727286    -0.54200
C614        C  0.46488894  0.06620557  0.60815064     0.09000
C615        C  0.44288028  0.08157488  0.57341227     0.19900
C616        C  0.39967925  0.08507405  0.62486058    -0.54900
C617        C  0.41634535  0.10576600  0.59611923     0.09100
C618        C  0.40905298  0.02663724  0.58813299    -0.54400
C619        C  0.42525793  0.04584272  0.55755474     0.09600
H620        H  0.45865715  0.03213487  0.66278044     0.14200
H621        H  0.45614447  0.09709233  0.54919668    -0.00100
H622        H  0.38041999  0.09588659  0.64454212     0.14500
H623        H  0.39748536  0.99989454  0.58336880     0.14300
N624        N  0.41418722  0.00094880  0.99883977    -0.03900
C625        C  0.43120130  0.02929798  0.51583891    -0.01300
C626        C  0.45807629  0.03682082  0.49181876    -0.24200
C627        C  0.45825482  0.51148863  0.95976456    -0.24400
C628        C  0.43161817  0.48929920  0.96532057    -0.01400
H629        H  0.47638105  0.05734846  0.49755959     0.12400
H630        H  0.47572270  0.50975761  0.93468664     0.12400
O631        O  0.01705102  0.47156873  0.73902822    -0.73400
O632        O  0.11423879  0.47437096  0.74187885    -0.74400
O633        O  0.06632184  0.45215442  0.79808983    -0.63000
O634        O  0.06682608  0.49390996  0.68378356    -0.71400
O635        O  0.06377473  0.05131815  0.71111436    -0.70900
O636        O  0.06395484  0.00898566  0.82658656    -0.62200
O637        O  0.11285897  0.03216064  0.76826890    -0.74700
O638        O  0.01414291  0.02856433  0.76686705    -0.73500
Cu639      Cu  0.06643549  0.47107347  0.74005482     1.04600
Cu640      Cu  0.06380144  0.03234780  0.76928450     1.04300
C641        C  0.49997993  0.49993420  0.75156527     0.92800
C642        C  0.12876122  0.50351037  0.75437571     0.92000
C643        C  0.06428420  0.47313053  0.83023297     0.84100
C644        C  0.06413357  0.02952965  0.67958982     0.90400
O645        O  0.44963776  0.47095547  0.73294612    -0.73400
O646        O  0.35089499  0.46754950  0.73155208    -0.74400
O647        O  0.39982553  0.49057748  0.67323777    -0.63000
O648        O  0.39995979  0.44828997  0.78868196    -0.71400
O649        O  0.39702311  0.00571094  0.81603472    -0.70900
O650        O  0.39752500  0.04743578  0.70167512    -0.62200
O651        O  0.34959942  0.02533813  0.75795623    -0.74700
O652        O  0.44678041  0.02797625  0.76073266    -0.73500
Cu653      Cu  0.39995820  0.46725433  0.73053275     1.04600
Cu654      Cu  0.39740801  0.02854591  0.75974070     1.04300
C655        C  0.46380206  0.49958194  0.74822360     0.92800
C656        C  0.33501018  0.49623386  0.74545242     0.92000
C657        C  0.39954196  0.02643057  0.66954983     0.84100
C658        C  0.39965929  0.47005943  0.82021715     0.90400
C659        C  0.05266206  0.29546500  0.85933488     0.86100
C660        C  0.01646262  0.30267625  0.85498519    -0.54200
C661        C  0.00063375  0.31621242  0.88921594     0.09000
C662        C  0.02426020  0.32484162  0.92413877     0.19900
C663        C  0.06587662  0.33324998  0.87089696    -0.54900
C664        C  0.04971814  0.35104434  0.90314755     0.09100
C665        C  0.05675125  0.27120634  0.89757028    -0.54400
C666        C  0.04188065  0.28600689  0.93177973     0.09600
H667        H  0.50483479  0.29702299  0.82587499     0.14200
H668        H  0.01273110  0.33674386  0.95241556    -0.00100
H669        H  0.08356374  0.34580184  0.85077368     0.14500
H670        H  0.06706592  0.24277905  0.89668926     0.14300
C671        C  0.05238225  0.20478735  0.62917318     0.86100
C672        C  0.01626438  0.20300610  0.63584168    -0.54200
C673        C  0.99942442  0.18361275  0.60729168     0.09000
C674        C  0.02164487  0.16744992  0.57267381     0.19900
C675        C  0.06400485  0.16430453  0.62407521    -0.54900
C676        C  0.04773529  0.14349290  0.59557644     0.09100
C677        C  0.05590968  0.22212153  0.58591126    -0.54400
C678        C  0.03971829  0.20253889  0.55578560     0.09600
H679        H  0.50522623  0.21883198  0.66102767     0.14200
H680        H  0.00847248  0.15160703  0.54895532    -0.00100
H681        H  0.08259198  0.15347997  0.64425287     0.14500
H682        H  0.06786545  0.24854181  0.58032398     0.14300
N683        N  0.05036832  0.24621188  0.49534456    -0.03900
C684        C  0.03178551  0.25920107  0.96397192    -0.01300
C685        C  0.00492877  0.23726616  0.95986011    -0.24200
C686        C  0.00601519  0.21130203  0.49142285    -0.24400
C687        C  0.03368775  0.21811099  0.51361247    -0.01400
H688        H  0.98663131  0.23970802  0.93626551     0.12400
H689        H  0.98756953  0.19116167  0.49833562     0.12400
C690        C  0.05196696  0.45469469  0.86905601     0.86100
C691        C  0.06417809  0.41441453  0.87478762    -0.54200
C692        C  0.04751264  0.39363301  0.90344386     0.09000
C693        C  0.02096453  0.41776065  0.92622684     0.19900
C694        C  0.01598435  0.45215609  0.86246004    -0.54900
C695        C  0.99894595  0.43320737  0.89152854     0.09100
C696        C  0.05476669  0.47275899  0.91166326    -0.54400
C697        C  0.03857766  0.45346981  0.94219327     0.09600
H698        H  0.08345623  0.40366738  0.85509504     0.14200
H699        H  0.00770648  0.40217750  0.95039620    -0.00100
H700        H  0.50517716  0.46738779  0.83698421     0.14500
H701        H  0.06633014  0.49949266  0.91649831     0.14300
C702        C  0.05297577  0.04551500  0.63932527     0.86100
C703        C  0.06591691  0.08336140  0.62785317    -0.54200
C704        C  0.05008906  0.10107219  0.59574272     0.09000
C705        C  0.02491774  0.07494156  0.57492110     0.19900
C706        C  0.01674702  0.05243342  0.64410367    -0.54900
C707        C  0.00108613  0.06612655  0.61014901     0.09100
C708        C  0.05740908  0.02137941  0.60074801    -0.54400
C709        C  0.04275983  0.03634151  0.56667304     0.09600
H710        H  0.08297294  0.09603770  0.64830191     0.14200
H711        H  0.01351469  0.08688444  0.54684718    -0.00100
H712        H  0.50508103  0.04670323  0.67341282     0.14500
H713        H  0.06767670  0.99293777  0.60138326     0.14300
N714        N  0.04966316  0.99829957  0.00097344    -0.03900
C715        C  0.03267831  0.46990331  0.98398152    -0.01300
C716        C  0.00586300  0.46226150  0.00806689    -0.24200
C717        C  0.00566251  0.98757392  0.54014533    -0.24400
C718        C  0.03222470  0.00987546  0.53453354    -0.01400
H719        H  0.98759371  0.44168622  0.00233645     0.12400
H720        H  0.98821581  0.98924715  0.56525129     0.12400
O721        O  0.31629504  0.70132424  0.04899261    -0.73400
O722        O  0.31715832  0.74232720  0.43365477    -0.74400
O723        O  0.36515676  0.72171355  0.49158445    -0.63000
O724        O  0.26699577  0.72101557  0.48931764    -0.71400
O725        O  0.26427582  0.77824248  0.01648317    -0.70900
O726        O  0.36236156  0.77947521  0.01792978    -0.62200
O727        O  0.31429735  0.79964621  0.46127144    -0.74700
O728        O  0.31346799  0.75852039  0.07652081    -0.73500
Cu729      Cu  0.31667296  0.71950108  0.49022103     1.04600
Cu730      Cu  0.31378824  0.78090542  0.01904463     1.04300
C731        C  0.31385487  0.72278413  0.08083221     0.92800
C732        C  0.31467590  0.77805056  0.42969336     0.92000
C733        C  0.37897656  0.75130767  0.00406376     0.84100
C734        C  0.25001399  0.74970880  0.50136413     0.90400
O735        O  0.19683628  0.77848305  0.00972087    -0.73400
O736        O  0.09866938  0.77765583  0.00744834    -0.74400
O737        O  0.14667158  0.75713655  0.06535276    -0.63000
O738        O  0.14752556  0.79809986  0.45005427    -0.71400
O739        O  0.15041303  0.74092203  0.42248875    -0.70900
O740        O  0.14963053  0.69980262  0.03777938    -0.62200
O741        O  0.10152844  0.71986714  0.48110301    -0.74700
O742        O  0.19959521  0.72125582  0.48254469    -0.73500
Cu743      Cu  0.14714809  0.77994188  0.00881034     1.04600
Cu744      Cu  0.15009862  0.71852340  0.47998307     1.04300
C745        C  0.21383641  0.74980464  0.99766711     0.92800
C746        C  0.08490223  0.74801075  0.99497915     0.92000
C747        C  0.14921229  0.72142331  0.06934130     0.84100
C748        C  0.15000409  0.77666376  0.41820322     0.90400
C749        C  0.16287306  0.79425157  0.37909686     0.86100
C750        C  0.19906168  0.79493527  0.38532579    -0.54200
C751        C  0.21642794  0.81409781  0.35671684     0.09000
C752        C  0.19487013  0.83006863  0.32203648     0.19900
C753        C  0.15220687  0.83516002  0.37390496    -0.54900
C754        C  0.16948672  0.85499828  0.34516737     0.09100
C755        C  0.15911735  0.77678588  0.33607692    -0.54400
C756        C  0.17589122  0.79564264  0.30563740     0.09600
H757        H  0.20961192  0.77947153  0.41083580     0.14200
H758        H  0.20852847  0.84499288  0.29784411    -0.00100
H759        H  0.13389471  0.84712332  0.39428751     0.14500
H760        H  0.14624976  0.75097438  0.33074398     0.14300
C761        C  0.15999927  0.70469693  0.10933042     0.86100
C762        C  0.19618536  0.69726579  0.10475876    -0.54200
C763        C  0.21146760  0.68322734  0.13877267     0.09000
C764        C  0.18730802  0.67359895  0.17335140     0.19900
C765        C  0.14637890  0.66701907  0.12001596    -0.54900
C766        C  0.16170310  0.64813447  0.15177315     0.09100
C767        C  0.15561390  0.72822707  0.14814993    -0.54400
C768        C  0.17015252  0.71263338  0.18193195     0.09600
H769        H  0.20828463  0.70384158  0.07595345     0.14200
H770        H  0.19842680  0.66083007  0.20122412    -0.00100
H771        H  0.12853826  0.65572854  0.09972377     0.14500
H772        H  0.14583925  0.75690605  0.14781339     0.14300
N773        N  0.16337898  0.75280360  0.24538350    -0.03900
C774        C  0.18080180  0.78043030  0.26296592    -0.01300
C775        C  0.20838745  0.78643880  0.23962608    -0.24200
C776        C  0.20866113  0.76034612  0.20819018    -0.24400
C777        C  0.18140581  0.73916035  0.21349112    -0.01400
H778        H  0.22741826  0.80594231  0.24585568     0.12400
H779        H  0.22666899  0.75740104  0.18387799     0.12400
C780        C  0.16381776  0.95658109  0.38290770     0.86100
C781        C  0.15281120  0.91681859  0.37589182    -0.54200
C782        C  0.16987626  0.89711589  0.34619058     0.09000
C783        C  0.19544234  0.92148455  0.32385976     0.19900
C784        C  0.20000068  0.95322540  0.38903478    -0.54900
C785        C  0.21740544  0.93539059  0.35859588     0.09100
C786        C  0.16013029  0.97615247  0.34098693    -0.54400
C787        C  0.17669482  0.95766366  0.30954134     0.09600
H788        H  0.13450536  0.90529144  0.39590168     0.14200
H789        H  0.20884572  0.90677636  0.29876875    -0.00100
H790        H  0.21021828  0.96613189  0.41595220     0.14500
H791        H  0.14749389  0.00301435  0.33718648     0.14300
C792        C  0.15780038  0.54678838  0.11286421     0.86100
C793        C  0.14584442  0.58650664  0.12105758    -0.54200
C794        C  0.16156381  0.60523807  0.15205320     0.09000
C795        C  0.18642132  0.57851824  0.17475664     0.19900
C796        C  0.19409833  0.54998436  0.10799050    -0.54900
C797        C  0.21008470  0.56535962  0.14023635     0.09100
C798        C  0.15254571  0.52594478  0.15321936    -0.54400
C799        C  0.16782529  0.54169241  0.18610302     0.09600
H800        H  0.12836095  0.59864700  0.10019673     0.14200
H801        H  0.19814092  0.59170316  0.20163694    -0.00100
H802        H  0.20545450  0.54008223  0.07975681     0.14500
H803        H  0.14203643  0.49817746  0.15445572     0.14300
N804        N  0.16333982  0.00328642  0.25188849    -0.03900
C805        C  0.18147064  0.97456346  0.26790511    -0.01300
C806        C  0.20753147  0.96608956  0.24230982    -0.24200
C807        C  0.20641286  0.49175760  0.21064002    -0.24400
C808        C  0.17977640  0.51500653  0.21788802    -0.01400
H809        H  0.22623288  0.94476268  0.24671120     0.12400
H810        H  0.22297990  0.49288960  0.18461628     0.12400
O811        O  0.26615430  0.97077810  0.01461827    -0.73400
O812        O  0.36566473  0.96989473  0.01498922    -0.74400
O813        O  0.31540916  0.99010176  0.07349914    -0.63000
O814        O  0.31776584  0.94873857  0.45834484    -0.71400
O815        O  0.31671698  0.50586336  0.43040539    -0.70900
O816        O  0.31355681  0.54721552  0.04561946    -0.62200
O817        O  0.36303330  0.52767691  0.48877130    -0.74700
O818        O  0.26560828  0.52771883  0.48665464    -0.73500
Cu819      Cu  0.31647577  0.96778388  0.01628759     1.04600
Cu820      Cu  0.31495214  0.52906483  0.48711852     1.04300
C821        C  0.25015702  0.99945212  0.50032797     0.92800
C822        C  0.37962898  0.99928292  0.50131559     0.92000
C823        C  0.31298957  0.52575564  0.07748460     0.84100
C824        C  0.31689011  0.97003660  0.42651584     0.90400
O825        O  0.14595956  0.55070318  0.04147487    -0.73400
O826        O  0.14839347  0.50937602  0.42635786    -0.74400
O827        O  0.09810768  0.52944375  0.48483896    -0.63000
O828        O  0.19762824  0.52876240  0.48525664    -0.71400
O829        O  0.19822422  0.97179013  0.01314449    -0.70900
O830        O  0.10081836  0.97168016  0.01110214    -0.62200
O831        O  0.15028674  0.95222741  0.45417556    -0.74700
O832        O  0.14714530  0.99358682  0.06946296    -0.73500
Cu833      Cu  0.14729168  0.53166172  0.48356740     1.04600
Cu834      Cu  0.14889638  0.97037536  0.01271951     1.04300
C835        C  0.14689345  0.52942930  0.07331790     0.92800
C836        C  0.15082564  0.97370943  0.42232288     0.92000
C837        C  0.08418568  0.50003442  0.49851026     0.84100
C838        C  0.21367618  0.00009963  0.49952425     0.90400
C839        C  0.30598780  0.95276486  0.38692965     0.86100
C840        C  0.26969755  0.94950806  0.39180141    -0.54200
C841        C  0.25372053  0.93426312  0.35947361     0.09000
C842        C  0.27738429  0.92124359  0.32489523     0.19900
C843        C  0.31797046  0.91309036  0.37856855    -0.54900
C844        C  0.30226286  0.89446392  0.34747921     0.09100
C845        C  0.31121658  0.97376357  0.34666338    -0.54400
C846        C  0.29595147  0.95811904  0.31371460     0.09600
H847        H  0.25833790  0.95925772  0.42009714     0.14200
H848        H  0.26566959  0.90814941  0.29795774    -0.00100
H849        H  0.33545061  0.90088898  0.39939364     0.14500
H850        H  0.32171857  0.00153817  0.34553600     0.14300
C851        C  0.29999129  0.54294938  0.11685736     0.86100
C852        C  0.26380992  0.54634952  0.11069948    -0.54200
C853        C  0.24640715  0.56424941  0.14109740     0.09000
C854        C  0.26838241  0.57822043  0.17579287     0.19900
C855        C  0.31104683  0.58270170  0.12378002    -0.54900
C856        C  0.29397601  0.60250888  0.15338144     0.09100
C857        C  0.30364594  0.52346401  0.15882335    -0.54400
C858        C  0.28710178  0.54205088  0.19021784     0.09600
H859        H  0.25359473  0.53343442  0.08378709     0.14200
H860        H  0.25499051  0.59300098  0.20084475    -0.00100
H861        H  0.32938318  0.59415207  0.10376108     0.14500
H862        H  0.31626356  0.49660014  0.16269681     0.14300
N863        N  0.30047999  0.99651419  0.24795095    -0.03900
C864        C  0.28403257  0.98487593  0.28198445    -0.01300
C865        C  0.25744763  0.00819951  0.28926376    -0.24200
C866        C  0.25634199  0.53384807  0.25755472    -0.24400
C867        C  0.28235924  0.52526989  0.23192072    -0.01400
H868        H  0.24089288  0.00710669  0.31530441     0.12400
H869        H  0.23766575  0.55520310  0.25313837     0.12400
C870        C  0.30388373  0.79486092  0.38974560     0.86100
C871        C  0.31749528  0.83257770  0.37920455    -0.54200
C872        C  0.30215569  0.85156955  0.34754105     0.09000
C873        C  0.27655777  0.82617105  0.32585808     0.19900
C874        C  0.26769184  0.80226127  0.39434490    -0.54900
C875        C  0.25239925  0.81641078  0.36039249     0.09100
C876        C  0.30827667  0.77146524  0.35083410    -0.54400
C877        C  0.29373414  0.78717670  0.31711178     0.09600
H878        H  0.33534842  0.84380348  0.39952339     0.14200
H879        H  0.26543512  0.83903127  0.29803624    -0.00100
H880        H  0.25559681  0.79557934  0.42312118     0.14500
H881        H  0.31804790  0.74278370  0.35106318     0.14300
C882        C  0.30099342  0.70526963  0.11998078     0.86100
C883        C  0.31162799  0.66436396  0.12529876    -0.54200
C884        C  0.29434855  0.64463176  0.15414058     0.09000
C885        C  0.26897941  0.66964471  0.17717230     0.19900
C886        C  0.26480609  0.70460115  0.11376410    -0.54900
C887        C  0.24743380  0.68553150  0.14243945     0.09100
C888        C  0.30476447  0.72285206  0.16294584    -0.54400
C889        C  0.28797439  0.70409861  0.19344646     0.09600
H890        H  0.32992245  0.65232958  0.10493893     0.14200
H891        H  0.25531120  0.65479679  0.20141311    -0.00100
H892        H  0.25425905  0.72000726  0.08820994     0.14500
H893        H  0.31763901  0.74867419  0.16819323     0.14300
N894        N  0.30048704  0.74703512  0.25362757    -0.03900
C895        C  0.28301979  0.71944811  0.23604359    -0.01300
C896        C  0.25538826  0.71354898  0.25932510    -0.24200
C897        C  0.25513455  0.73965797  0.29073312    -0.24400
C898        C  0.28244870  0.76074773  0.28548095    -0.05400
H899        H  0.23633078  0.69408250  0.25309454     0.12400
H900        H  0.23711678  0.74264424  0.31502611     0.12400
O901        O  0.11259825  0.77994057  0.23152037    -0.73400
O902        O  0.01441451  0.77832853  0.23233903    -0.74400
O903        O  0.06355062  0.80050832  0.28758929    -0.63000
O904        O  0.06454123  0.75854069  0.17230578    -0.71400
O905        O  0.06665637  0.70154380  0.20027084    -0.70900
O906        O  0.06639520  0.74322466  0.31520591    -0.62200
O907        O  0.01690625  0.72132179  0.26011212    -0.74700
O908        O  0.11476606  0.72211118  0.25772603    -0.73500
Cu909      Cu  0.06397420  0.78129935  0.22989540     1.04600
Cu910      Cu  0.06645075  0.71998896  0.25899109     1.04300
C911        C  0.12885718  0.75173838  0.24562524     0.92800
C912        C  0.50004631  0.74979994  0.24774380     0.92000
C913        C  0.06383163  0.77895188  0.31917483     0.84100
C914        C  0.06468380  0.72277041  0.16823904     0.90400
O915        O  0.39727161  0.79804198  0.29884230    -0.73400
O916        O  0.39755646  0.75641141  0.18385162    -0.74400
O917        O  0.34915925  0.77761814  0.24130123    -0.63000
O918        O  0.44701237  0.77821765  0.23903042    -0.71400
O919        O  0.44944090  0.72119303  0.26676506    -0.70900
O920        O  0.35122648  0.71979016  0.26751646    -0.62200
O921        O  0.40026749  0.69913465  0.21150055    -0.74700
O922        O  0.39929517  0.74102061  0.32675990    -0.73500
Cu923      Cu  0.39748354  0.77963805  0.24009294     1.04600
Cu924      Cu  0.39985647  0.71831769  0.26917443     1.04300
C925        C  0.39920242  0.77678257  0.33085532     0.92800
C926        C  0.40004501  0.72067439  0.17990606     0.92000
C927        C  0.33501457  0.74802614  0.25340284     0.84100
C928        C  0.46384163  0.74971453  0.25138936     0.90400
C929        C  0.41149840  0.79468675  0.36996536     0.86100
C930        C  0.39988363  0.83515768  0.37517366    -0.54200
C931        C  0.41615038  0.85588632  0.40375094     0.09000
C932        C  0.44224349  0.83187672  0.42656943     0.19900
C933        C  0.44761517  0.79647251  0.36329880    -0.54900
C934        C  0.46445470  0.81579832  0.39190151     0.09100
C935        C  0.40797190  0.77724925  0.41317938    -0.54400
C936        C  0.42417168  0.79675789  0.44335350     0.09600
H937        H  0.38130428  0.84603682  0.35501744     0.14200
H938        H  0.45542017  0.84765721  0.45033420    -0.00100
H939        H  0.45865484  0.78070268  0.33807052     0.14500
H940        H  0.39601601  0.75081697  0.41869742     0.14300
C941        C  0.41121466  0.70410704  0.13978997     0.86100
C942        C  0.39798968  0.66628502  0.12839664    -0.54200
C943        C  0.41413983  0.64837037  0.09622926     0.09000
C944        C  0.43960129  0.67448740  0.07510957     0.19900
C945        C  0.44741741  0.69691048  0.14415328    -0.54900
C946        C  0.46324171  0.68324604  0.10997753     0.09100
C947        C  0.40711666  0.72822701  0.10145770    -0.54400
C948        C  0.42197576  0.71329024  0.06730411     0.09600
H949        H  0.38029107  0.65381011  0.14856461     0.14200
H950        H  0.45112473  0.66248912  0.04687455    -0.00100
H951        H  0.45904669  0.70266886  0.17323534     0.14500
H952        H  0.39681824  0.75666404  0.10222949     0.14300
N953        N  0.41349381  0.75304295  0.00372263    -0.03900
C954        C  0.43210770  0.73997821  0.03502657    -0.01300
C955        C  0.45903913  0.76179833  0.03905659    -0.24200
C956        C  0.45793839  0.78778795  0.50761411    -0.24400
C957        C  0.43022316  0.78109444  0.48546995    -0.01400
H958        H  0.47735870  0.75930642  0.06261749     0.12400
H959        H  0.47642239  0.80787753  0.50069878     0.12400
C960        C  0.41086579  0.95399969  0.36043179     0.86100
C961        C  0.44710156  0.94711266  0.35562760    -0.54200
C962        C  0.46277145  0.93329987  0.38952353     0.09000
C963        C  0.43893991  0.92436116  0.42470931     0.19900
C964        C  0.39793474  0.91611189  0.37175638    -0.54900
C965        C  0.41377475  0.89829782  0.40378193     0.09100
C966        C  0.40642436  0.97800146  0.39910137    -0.54400
C967        C  0.42108026  0.96292219  0.43311549     0.09600
H968        H  0.45875975  0.95295243  0.32634235     0.14200
H969        H  0.45034582  0.91233279  0.45274006    -0.00100
H970        H  0.38086665  0.90349873  0.35127555     0.14500
H971        H  0.39615915  0.00644638  0.39857391     0.14300
C972        C  0.41183135  0.54481848  0.13069980     0.86100
C973        C  0.44781720  0.54733316  0.13727533    -0.54200
C974        C  0.46485899  0.56621305  0.10815432     0.09000
C975        C  0.44285234  0.58158805  0.07341733     0.19900
C976        C  0.39965433  0.58510046  0.12486996    -0.54900
C977        C  0.41632497  0.60578700  0.09612760     0.09100
C978        C  0.40901254  0.52666136  0.08813877    -0.54400
C979        C  0.42522150  0.54586102  0.05755896     0.09600
H980        H  0.45862369  0.53214027  0.16278055     0.14200
H981        H  0.45611915  0.59710255  0.04920230    -0.00100
H982        H  0.38039805  0.59591957  0.14455275     0.14500
H983        H  0.39743851  0.49992258  0.08337577     0.14300
N984        N  0.41415466  0.50094156  0.49884862    -0.03900
C985        C  0.43116274  0.52931312  0.01584141    -0.01300
C986        C  0.45802753  0.53685020  0.99180766    -0.24200
C987        C  0.45830266  0.01146009  0.45977545    -0.24400
C988        C  0.43165444  0.98928689  0.46531836    -0.01400
H989        H  0.47632590  0.55738814  0.99753848     0.12400
H990        H  0.47577699  0.00972004  0.43470548     0.12400
O991        O  0.01706977  0.97156290  0.23902748    -0.73400
O992        O  0.11425544  0.97435287  0.24186139    -0.74400
O993        O  0.06634549  0.95213406  0.29807857    -0.63000
O994        O  0.06683747  0.99390620  0.18377871    -0.71400
O995        O  0.06374380  0.55130344  0.21111939    -0.70900
O996        O  0.06393502  0.50897229  0.32659015    -0.62200
O997        O  0.11283141  0.53214134  0.26826254    -0.74700
O998        O  0.01412077  0.52855584  0.26687882    -0.73500
Cu999      Cu  0.06645239  0.97106129  0.24004556     1.04600
Cu1000     Cu  0.06377685  0.53233249  0.26928774     1.04300
C1001       C  0.50000414  0.99993245  0.25156436     0.92800
C1002       C  0.12878187  0.00348739  0.25436442     0.92000
C1003       C  0.06431477  0.97310796  0.33022411     0.84100
C1004       C  0.06410137  0.52951826  0.17959252     0.90400
O1005       O  0.44966139  0.97096684  0.23293664    -0.73400
O1006       O  0.35092370  0.96756820  0.23155833    -0.74400
O1007       O  0.39984740  0.99059168  0.17323472    -0.63000
O1008       O  0.39999212  0.94830457  0.28867686    -0.71400
O1009       O  0.39701052  0.50571399  0.31604039    -0.70900
O1010       O  0.39750371  0.54745664  0.20168733    -0.62200
O1011       O  0.34958417  0.52535566  0.25797140    -0.74700
O1012       O  0.44676226  0.52798360  0.26073806    -0.73500
Cu1013     Cu  0.39998442  0.96727073  0.23053022     1.04600
Cu1014     Cu  0.39739184  0.52855829  0.25975105     1.04300
C1015       C  0.46382768  0.99958858  0.24822019     0.92800
C1016       C  0.33503871  0.99625137  0.24545975     0.92000
C1017       C  0.39951135  0.52645347  0.16955951     0.84100
C1018       C  0.39969241  0.97007041  0.32021445     0.90400
C1019       C  0.05265732  0.79543507  0.35933525     0.86100
C1020       C  0.01645822  0.80265111  0.35498582    -0.54200
C1021       C  0.00063235  0.81619730  0.38921493     0.09000
C1022       C  0.02426092  0.82483078  0.42413280     0.19900
C1023       C  0.06587692  0.83322037  0.37088690    -0.54900
C1024       C  0.04972376  0.85102256  0.40313541     0.09100
C1025       C  0.05674315  0.77118312  0.39757614    -0.54400
C1026       C  0.04187349  0.78599519  0.43178112     0.09600
H1027       H  0.50482867  0.79699090  0.32587864     0.14200
H1028       H  0.01273342  0.83673882  0.45240804    -0.00100
H1029       H  0.08356458  0.84576671  0.35075992     0.14500
H1030       H  0.06705186  0.74275293  0.39670181     0.14300
C1031       C  0.05238893  0.70478822  0.12916231     0.86100
C1032       C  0.01627043  0.70301949  0.13583048    -0.54200
C1033       C  0.99942631  0.68362767  0.10728457     0.09000
C1034       C  0.02164278  0.66745763  0.07266617     0.19900
C1035       C  0.06400268  0.66430158  0.12406625    -0.54900
C1036       C  0.04772651  0.64349325  0.09557171     0.09100
C1037       C  0.05592132  0.72211912  0.08589957    -0.54400
C1038       C  0.03972592  0.70254008  0.05577445     0.09600
H1039       H  0.50523538  0.71884882  0.16101619     0.14200
H1040       H  0.00846666  0.65161722  0.04894928    -0.00100
H1041       H  0.08258862  0.65347169  0.14424263     0.14500
H1042       H  0.06788569  0.74853348  0.08031069     0.14300
N1043       N  0.05038925  0.74621326  0.99533552    -0.03900
C1044       C  0.03176903  0.75920263  0.46397847    -0.01300
C1045       C  0.00490269  0.73728244  0.45987677    -0.24200
C1046       C  0.00604224  0.71129432  0.99139222    -0.24400
C1047       C  0.03370739  0.71810822  0.01359527    -0.01400
H1048       H  0.98660228  0.73973107  0.43628667     0.12400
H1049       H  0.98759601  0.69115188  0.99829772     0.12400
C1050       C  0.05199986  0.95467206  0.36904885     0.86100
C1051       C  0.06420364  0.91438792  0.37477822    -0.54200
C1052       C  0.04753397  0.89361123  0.40343529     0.09000
C1053       C  0.02099241  0.91774560  0.42622091     0.19900
C1054       C  0.01601613  0.95214333  0.36245611    -0.54900
C1055       C  0.99897577  0.93319636  0.39152336     0.09100
C1056       C  0.05480500  0.97273462  0.41165715    -0.54400
C1057       C  0.03861238  0.95345061  0.44218843     0.09600
H1058       H  0.08347911  0.90363459  0.35508461     0.14200
H1059       H  0.00773202  0.90216491  0.45038966    -0.00100
H1060       H  0.50520968  0.96737891  0.33698241     0.14500
H1061       H  0.06637395  0.99946502  0.41649127     0.14300
C1062       C  0.05294350  0.54551051  0.13933078     0.86100
C1063       C  0.06588702  0.58335787  0.12786474    -0.54200
C1064       C  0.05006310  0.60107222  0.09575310     0.09000
C1065       C  0.02488877  0.57494824  0.07492947     0.19900
C1066       C  0.01671520  0.55243200  0.14410899    -0.54900
C1067       C  0.00105604  0.56613103  0.11015544     0.09100
C1068       C  0.05737587  0.52138002  0.10075009    -0.54400
C1069       C  0.04272869  0.53634891  0.06667745     0.09600
H1070       H  0.08294521  0.59603009  0.14831393     0.14200
H1071       H  0.01348610  0.58689455  0.04685686    -0.00100
H1072       H  0.50504859  0.54669854  0.17341694     0.14500
H1073       H  0.06764112  0.49293717  0.10138080     0.14300
N1074       N  0.04962983  0.49829462  0.50098037    -0.03900
C1075       C  0.03271452  0.96988676  0.48397862    -0.01300
C1076       C  0.00590976  0.96222897  0.50807742    -0.24200
C1077       C  0.00561741  0.48760652  0.04013413    -0.24400
C1078       C  0.03219205  0.50989034  0.03453503    -0.01400
H1079       H  0.98764768  0.94164255  0.50235656     0.12400
H1080       H  0.98816409  0.48929032  0.06523199     0.12400
O1081       O  0.31626027  0.70135440  0.54900376    -0.73400
O1082       O  0.31716148  0.74231056  0.93364635    -0.74400
O1083       O  0.36517468  0.72169686  0.99156294    -0.63000
O1084       O  0.26701561  0.72097776  0.98931438    -0.71400
O1085       O  0.26425868  0.77828053  0.51648500    -0.70900
O1086       O  0.36234995  0.77949598  0.51794031    -0.62200
O1087       O  0.31429732  0.79962635  0.96127122    -0.74700
O1088       O  0.31344225  0.75854970  0.57653397    -0.73500
Cu1089     Cu  0.31669232  0.71947470  0.99020932     1.04600
Cu1090     Cu  0.31377484  0.78093354  0.51905094     1.04300
C1091       C  0.31381826  0.72281265  0.58084395     0.92800
C1092       C  0.31466911  0.77803425  0.92969117     0.92000
C1093       C  0.37896242  0.75132475  0.50407778     0.84100
C1094       C  0.25003342  0.74967153  0.00135804     0.90400
O1095       O  0.19680953  0.77850923  0.50973780    -0.73400
O1096       O  0.09864028  0.77765474  0.50743827    -0.74400
O1097       O  0.14663145  0.75715208  0.56535575    -0.63000
O1098       O  0.14754005  0.79809417  0.95005759    -0.71400
O1099       O  0.15041965  0.74091888  0.92248510    -0.70900
O1100       O  0.14960275  0.69981828  0.53778287    -0.62200
O1101       O  0.10154720  0.71986975  0.98110749    -0.74700
O1102       O  0.19961277  0.72122894  0.98252786    -0.73500
Cu1103     Cu  0.14711923  0.77995433  0.50881201     1.04600
Cu1104     Cu  0.15011592  0.71851181  0.97997755     1.04300
C1105       C  0.21381502  0.74983560  0.49768143     0.92800
C1106       C  0.08487831  0.74800373  0.49497544     0.92000
C1107       C  0.14917392  0.72143886  0.56934436     0.84100
C1108       C  0.15000571  0.77666160  0.91820327     0.90400
C1109       C  0.16286346  0.79425476  0.87909522     0.86100
C1110       C  0.19905244  0.79492949  0.88531482    -0.54200
C1111       C  0.21641679  0.81409584  0.85671028     0.09000
C1112       C  0.19485673  0.83007254  0.82203282     0.19900
C1113       C  0.15220230  0.83516785  0.87391218    -0.54900
C1114       C  0.16947906  0.85500509  0.84516850     0.09100
C1115       C  0.15909676  0.77679542  0.83607461    -0.54400
C1116       C  0.17586809  0.79565253  0.80563378     0.09600
H1117       H  0.20960601  0.77945857  0.91081781     0.14200
H1118       H  0.20851485  0.84499678  0.79783993    -0.00100
H1119       H  0.13389417  0.84713238  0.89429994     0.14500
H1120       H  0.14622382  0.75098763  0.83074117     0.14300
C1121       C  0.15995800  0.70471279  0.60933299     0.86100
C1122       C  0.19614444  0.69728313  0.60475899    -0.54200
C1123       C  0.21142723  0.68324452  0.63877150     0.09000
C1124       C  0.18727041  0.67361729  0.67335162     0.19900
C1125       C  0.14633908  0.66703374  0.62002096    -0.54900
C1126       C  0.16166835  0.64815119  0.65177663     0.09100
C1127       C  0.15557300  0.72824326  0.64815129    -0.54400
C1128       C  0.17011341  0.71264923  0.68193144     0.09600
H1129       H  0.20824428  0.70385887  0.57595383     0.14200
H1130       H  0.19838962  0.66085064  0.70122510    -0.00100
H1131       H  0.12849908  0.65573979  0.59972982     0.14500
H1132       H  0.14579812  0.75692206  0.64781528     0.14300
N1133       N  0.16334092  0.75282115  0.74537727    -0.03900
C1134       C  0.18076889  0.78044419  0.76295996    -0.01300
C1135       C  0.20835860  0.78644233  0.73962443    -0.24200
C1136       C  0.20862915  0.76034948  0.70819021    -0.24400
C1137       C  0.18136837  0.73917352  0.71348851    -0.01400
H1138       H  0.22739492  0.80593763  0.74585747     0.12400
H1139       H  0.22663891  0.75739762  0.68388123     0.12400
C1140       C  0.16381846  0.95658341  0.88290661     0.86100
C1141       C  0.15279765  0.91682919  0.87587323    -0.54200
C1142       C  0.16986467  0.89712443  0.84617585     0.09000
C1143       C  0.19544091  0.92149003  0.82385564     0.19900
C1144       C  0.19999981  0.95320681  0.88904420    -0.54900
C1145       C  0.21740439  0.93537832  0.85860118     0.09100
C1146       C  0.16014482  0.97616948  0.84099262    -0.54400
C1147       C  0.17670528  0.95768150  0.80954412     0.09600
H1148       H  0.13448475  0.90530483  0.89587439     0.14200
H1149       H  0.20884268  0.90678332  0.79876197    -0.00100
H1150       H  0.21021710  0.96609331  0.91597333     0.14500
H1151       H  0.14751597  0.00303690  0.83719759     0.14300
C1152       C  0.15778954  0.54680070  0.61287429     0.86100
C1153       C  0.14583456  0.58652011  0.62105372    -0.54200
C1154       C  0.16154875  0.60525611  0.65204772     0.09000
C1155       C  0.18640899  0.57854412  0.67475827     0.19900
C1156       C  0.19408837  0.54999133  0.60800213    -0.54900
C1157       C  0.21007421  0.56537628  0.64024311     0.09100
C1158       C  0.15253221  0.52596756  0.65323545    -0.54400
C1159       C  0.16781439  0.54172063  0.68611461     0.09600
H1160       H  0.12835188  0.59865641  0.60018896     0.14200
H1161       H  0.19812800  0.59173592  0.70163484    -0.00100
H1162       H  0.20544525  0.54007038  0.57977709     0.14500
H1163       H  0.14202358  0.49820015  0.65447811     0.14300
N1164       N  0.16334510  0.00330876  0.75189352    -0.03900
C1165       C  0.18147796  0.97458497  0.76790791    -0.01300
C1166       C  0.20753079  0.96610207  0.74230281    -0.24200
C1167       C  0.20640703  0.49178363  0.71063121    -0.24400
C1168       C  0.17977518  0.51503622  0.71789523    -0.01400
H1169       H  0.22622927  0.94477075  0.74669944     0.12400
H1170       H  0.22296714  0.49291667  0.68460040     0.12400
O1171       O  0.26614686  0.97079400  0.51461586    -0.73400
O1172       O  0.36566169  0.96989917  0.51497708    -0.74400
O1173       O  0.31540464  0.99010264  0.57349461    -0.63000
O1174       O  0.31777678  0.94872346  0.95835073    -0.71400
O1175       O  0.31671957  0.50585535  0.93039322    -0.70900
O1176       O  0.31355416  0.54723505  0.54563011    -0.62200
O1177       O  0.36303525  0.52767410  0.98875768    -0.74700
O1178       O  0.26561332  0.52769607  0.98664406    -0.73500
Cu1179     Cu  0.31646879  0.96779307  0.51628091     1.04600
Cu1180     Cu  0.31495488  0.52905149  0.98710691     1.04300
C1181       C  0.25016250  0.99943228  0.00032435     0.92800
C1182       C  0.37962741  0.99927954  0.00132482     0.92000
C1183       C  0.31298565  0.52577577  0.57749550     0.84100
C1184       C  0.31689638  0.97001979  0.92651999     0.90400
O1185       O  0.14594007  0.55071246  0.54148977    -0.73400
O1186       O  0.14839672  0.50935743  0.92634363    -0.74400
O1187       O  0.09811891  0.52944329  0.98483168    -0.63000
O1188       O  0.19763889  0.52873555  0.98523539    -0.71400
O1189       O  0.19822039  0.97181121  0.51315326    -0.70900
O1190       O  0.10082038  0.97168795  0.51109723    -0.62200
O1191       O  0.15028108  0.95222138  0.95417099    -0.74700
O1192       O  0.14713847  0.99360485  0.56946045    -0.73500
Cu1193     Cu  0.14730329  0.53164752  0.98355237     1.04600
Cu1194     Cu  0.14889540  0.97038901  0.51272115     1.04300
C1195       C  0.14688072  0.52943844  0.57333237     0.92800
C1196       C  0.15082616  0.97370826  0.92232254     0.92000
C1197       C  0.08419314  0.50003636  0.99850245     0.84100
C1198       C  0.21368199  0.00007947  0.99952088     0.90400
C1199       C  0.30598960  0.95274808  0.88693489     0.86100
C1200       C  0.26969885  0.94949284  0.89180868    -0.54200
C1201       C  0.25372011  0.93424846  0.85948090     0.09000
C1202       C  0.27738269  0.92123076  0.82490030     0.19900
C1203       C  0.31797025  0.91307332  0.87857137    -0.54900
C1204       C  0.30226108  0.89444939  0.84748132     0.09100
C1205       C  0.31121662  0.97374851  0.84666857    -0.54400
C1206       C  0.29595059  0.95810577  0.81371937     0.09600
H1207       H  0.25834047  0.95924706  0.92010314     0.14200
H1208       H  0.26566663  0.90813804  0.79796297    -0.00100
H1209       H  0.33544948  0.90086951  0.89939591     0.14500
H1210       H  0.32171910  0.00152290  0.84554160     0.14300
C1211       C  0.29998441  0.54296789  0.61686792     0.86100
C1212       C  0.26380271  0.54636951  0.61070719    -0.54200
C1213       C  0.24639743  0.56426057  0.64110960     0.09000
C1214       C  0.26837159  0.57822453  0.67581015     0.19900
C1215       C  0.31103709  0.58272019  0.62379968    -0.54900
C1216       C  0.29396112  0.60252226  0.65340118     0.09100
C1217       C  0.30363908  0.52347427  0.65882829    -0.54400
C1218       C  0.28709413  0.54205193  0.69022703     0.09600
H1219       H  0.25359032  0.53347117  0.58378355     0.14200
H1220       H  0.25497947  0.59299867  0.70086652    -0.00100
H1221       H  0.32936830  0.59417759  0.60377827     0.14500
H1222       H  0.31625860  0.49661065  0.66269489     0.14300
N1223       N  0.30047369  0.99649369  0.74794592    -0.03900
C1224       C  0.28403160  0.98486315  0.78198837    -0.01300
C1225       C  0.25745052  0.00819159  0.78927298    -0.24200
C1226       C  0.25634481  0.53383408  0.75757028    -0.24400
C1227       C  0.28235567  0.52525720  0.73192564    -0.01400
H1228       H  0.24090130  0.00710489  0.81531993     0.12400
H1229       H  0.23767200  0.55519587  0.75316725     0.12400
C1230       C  0.30387053  0.79484908  0.88974829     0.86100
C1231       C  0.31748887  0.83256114  0.87920327    -0.54200
C1232       C  0.30215039  0.85155531  0.84754077     0.09000
C1233       C  0.27654656  0.82616219  0.82586094     0.19900
C1234       C  0.26767908  0.80226060  0.89435064    -0.54900
C1235       C  0.25238754  0.81641081  0.86039521     0.09100
C1236       C  0.30825617  0.77145045  0.85083915    -0.54400
C1237       C  0.29371205  0.78716170  0.81711915     0.09600
H1238       H  0.33534484  0.84378374  0.89952015     0.14200
H1239       H  0.26542572  0.83902276  0.79803807    -0.00100
H1240       H  0.25558391  0.79558285  0.92312826     0.14500
H1241       H  0.31802216  0.74276657  0.85106922     0.14300
C1242       C  0.30095037  0.70529283  0.61998871     0.86100
C1243       C  0.31158575  0.66438558  0.62529947    -0.54200
C1244       C  0.29430930  0.64464728  0.65413951     0.09000
C1245       C  0.26893482  0.66965285  0.67716986     0.19900
C1246       C  0.26476427  0.70462258  0.61376730    -0.54900
C1247       C  0.24739208  0.68554594  0.64243733     0.09100
C1248       C  0.30471612  0.72286622  0.66295943    -0.54400
C1249       C  0.28792565  0.70410335  0.69345367     0.09600
H1250       H  0.32988304  0.65235621  0.60494062     0.14200
H1251       H  0.25526465  0.65479992  0.70140533    -0.00100
H1252       H  0.25421770  0.72003364  0.58821615     0.14500
H1253       H  0.31758972  0.74868742  0.66821569     0.14300
N1254       N  0.30044956  0.74701215  0.75364566    -0.03900
C1255       C  0.28297529  0.71943637  0.73605704    -0.01300
C1256       C  0.25534178  0.71354479  0.75933811    -0.24200
C1257       C  0.25509572  0.73965163  0.79074986    -0.24400
C1258       C  0.28241629  0.76073102  0.78549798    -0.05400
H1259       H  0.23627833  0.69408745  0.75310296     0.12400
H1260       H  0.23707813  0.74264453  0.81504223     0.12400
O1261       O  0.11255694  0.77995261  0.73151020    -0.73400
O1262       O  0.01437016  0.77832861  0.73233500    -0.74400
O1263       O  0.06351521  0.80051078  0.78758238    -0.63000
O1264       O  0.06449179  0.75855091  0.67229735    -0.71400
O1265       O  0.06661073  0.70155341  0.70026119    -0.70900
O1266       O  0.06636166  0.74322629  0.81519648    -0.62200
O1267       O  0.01686801  0.72132060  0.76010435    -0.74700
O1268       O  0.11472842  0.72212232  0.75771219    -0.73500
Cu1269     Cu  0.06393095  0.78130575  0.72988806     1.04600
Cu1270     Cu  0.06641188  0.71999427  0.75898056     1.04300
C1271       C  0.12881812  0.75175294  0.74561734     0.92800
C1272       C  0.50000490  0.74979538  0.74773459     0.92000
C1273       C  0.06380507  0.77895371  0.81916740     0.84100
C1274       C  0.06463266  0.72278076  0.66823087     0.90400
O1275       O  0.39723719  0.79803319  0.79882538    -0.73400
O1276       O  0.39750185  0.75636797  0.68385239    -0.74400
O1277       O  0.34911896  0.77758861  0.74130560    -0.63000
O1278       O  0.44696651  0.77819617  0.73900747    -0.71400
O1279       O  0.44940437  0.72117772  0.76675651    -0.70900
O1280       O  0.35118928  0.71976278  0.76752691    -0.62200
O1281       O  0.40022701  0.69909419  0.71150757    -0.74700
O1282       O  0.39926613  0.74101730  0.82675550    -0.73500
Cu1283     Cu  0.39743912  0.77961036  0.74008324     1.04600
Cu1284     Cu  0.39982061  0.71829500  0.76917654     1.04300
C1285       C  0.39917429  0.77678062  0.83084293     0.92800
C1286       C  0.39999838  0.72063133  0.67991081     0.92000
C1287       C  0.33497629  0.74799834  0.75341326     0.84100
C1288       C  0.46380029  0.74970003  0.75137455     0.90400
C1289       C  0.41147430  0.79469250  0.86994883     0.86100
C1290       C  0.39986642  0.83516679  0.87515140    -0.54200
C1291       C  0.41613380  0.85589340  0.90373117     0.09000
C1292       C  0.44222285  0.83188086  0.92655242     0.19900
C1293       C  0.44759224  0.79647169  0.86328515    -0.54900
C1294       C  0.46443398  0.81579458  0.89189091     0.09100
C1295       C  0.40794475  0.77725938  0.91316471    -0.54400
C1296       C  0.42414964  0.79676503  0.94333676     0.09600
H1297       H  0.38128989  0.84604809  0.85499234     0.14200
H1298       H  0.45540028  0.84766144  0.95031643    -0.00100
H1299       H  0.45862937  0.78069697  0.83805919     0.14500
H1300       H  0.39599175  0.75082532  0.91868234     0.14300
C1301       C  0.41116937  0.70406914  0.63979315     0.86100
C1302       C  0.39793900  0.66625594  0.62837939    -0.54200
C1303       C  0.41409362  0.64834880  0.59621019     0.09000
C1304       C  0.43955860  0.67447191  0.57510343     0.19900
C1305       C  0.44737204  0.69686322  0.64415903    -0.54900
C1306       C  0.46319776  0.68321517  0.60997625     0.09100
C1307       C  0.40707796  0.72820489  0.60147171    -0.54400
C1308       C  0.42193983  0.71328144  0.56731445     0.09600
H1309       H  0.38023812  0.65377691  0.64854073     0.14200
H1310       H  0.45108170  0.66248315  0.54686329    -0.00100
H1311       H  0.45900234  0.70260944  0.67324362     0.14500
H1312       H  0.39678308  0.75664350  0.60225510     0.14300
N1313       N  0.41348087  0.75305170  0.50374327    -0.03900
C1314       C  0.43208254  0.73998444  0.53505691    -0.01300
C1315       C  0.45901253  0.76180473  0.53910768    -0.24200
C1316       C  0.45795126  0.78778054  0.00756379    -0.24400
C1317       C  0.43022670  0.78108720  0.98543962    -0.01400
H1318       H  0.47732432  0.75930829  0.56267790     0.12400
H1319       H  0.47642953  0.80787431  0.00064086     0.12400
C1320       C  0.41084998  0.95401018  0.86042907     0.86100
C1321       C  0.44708629  0.94712669  0.85562726    -0.54200
C1322       C  0.46275517  0.93331242  0.88952258     0.09000
C1323       C  0.43892227  0.92436863  0.92470513     0.19900
C1324       C  0.39791938  0.91612217  0.87174882    -0.54900
C1325       C  0.41375820  0.89830545  0.90377191     0.09100
C1326       C  0.40640633  0.97801042  0.89910004    -0.54400
C1327       C  0.42106352  0.96293049  0.93311390     0.09600
H1328       H  0.45874620  0.95297093  0.82634429     0.14200
H1329       H  0.45032695  0.91233787  0.95273543    -0.00100
H1330       H  0.38085332  0.90351016  0.85126450     0.14500
H1331       H  0.39614184  0.00645567  0.89857265     0.14300
C1332       C  0.41182406  0.54480118  0.63070476     0.86100
C1333       C  0.44780707  0.54734057  0.63728903    -0.54200
C1334       C  0.46484512  0.56621873  0.60816326     0.09000
C1335       C  0.44283596  0.58157723  0.57341985     0.19900
C1336       C  0.39963006  0.58507471  0.62486314    -0.54900
C1337       C  0.41629535  0.60576581  0.59611881     0.09100
C1338       C  0.40901896  0.52663355  0.58814766    -0.54400
C1339       C  0.42522112  0.54583899  0.55756700     0.09600
H1340       H  0.45861562  0.53216206  0.66280261     0.14200
H1341       H  0.45609871  0.59709405  0.54920275    -0.00100
H1342       H  0.38036856  0.59588613  0.64454218     0.14500
H1343       H  0.39745505  0.49988825  0.58338650     0.14300
N1344       N  0.41415998  0.50095248  0.99884430    -0.03900
C1345       C  0.43116122  0.52929658  0.51584870    -0.01300
C1346       C  0.45802356  0.53683817  0.49181263    -0.24200
C1347       C  0.45828439  0.01147961  0.95976417    -0.24400
C1348       C  0.43164328  0.98929616  0.96531518    -0.01400
H1349       H  0.47632220  0.55737521  0.49754482     0.12400
H1350       H  0.47575251  0.00974836  0.93468646     0.12400
O1351       O  0.01707423  0.97156691  0.73902888    -0.73400
O1352       O  0.11426202  0.97436808  0.74187846    -0.74400
O1353       O  0.06634469  0.95214837  0.79808863    -0.63000
O1354       O  0.06685134  0.99390413  0.68378753    -0.71400
O1355       O  0.06374234  0.55132231  0.71111326    -0.70900
O1356       O  0.06393450  0.50899237  0.82658661    -0.62200
O1357       O  0.11283228  0.53216552  0.76826422    -0.74700
O1358       O  0.01411745  0.52856375  0.76687205    -0.73500
Cu1359     Cu  0.06645879  0.97106987  0.74005589     1.04600
Cu1360     Cu  0.06377552  0.53235099  0.76928380     1.04300
C1361       C  0.50000428  0.99993480  0.75156218     0.92800
C1362       C  0.12878639  0.00350590  0.75437624     0.92000
C1363       C  0.06430527  0.97312336  0.83023206     0.84100
C1364       C  0.06410061  0.52953556  0.67958747     0.90400
O1365       O  0.44966286  0.97095863  0.73293995    -0.73400
O1366       O  0.35092088  0.96755347  0.73154473    -0.74400
O1367       O  0.39985807  0.99057491  0.67322665    -0.63000
O1368       O  0.39998375  0.94830520  0.78867527    -0.71400
O1369       O  0.39700532  0.50569525  0.81604259    -0.70900
O1370       O  0.39749606  0.54743684  0.70169037    -0.62200
O1371       O  0.34957908  0.52533242  0.75796860    -0.74700
O1372       O  0.44675650  0.52797264  0.76074007    -0.73500
Cu1373     Cu  0.39998475  0.96725999  0.73052508     1.04600
Cu1374     Cu  0.39738553  0.52853894  0.75975228     1.04300
C1375       C  0.46382650  0.99958481  0.74821808     0.92800
C1376       C  0.33503311  0.99623452  0.74544794     0.92000
C1377       C  0.39950687  0.52643353  0.66956327     0.84100
C1378       C  0.39967943  0.97007549  0.82020965     0.90400
C1379       C  0.05263909  0.79543663  0.85933039     0.86100
C1380       C  0.01643817  0.80263197  0.85499106    -0.54200
C1381       C  0.00061318  0.81618117  0.88921696     0.09000
C1382       C  0.02424530  0.82483186  0.92412951     0.19900
C1383       C  0.06584644  0.83323196  0.87086651    -0.54900
C1384       C  0.04969641  0.85103171  0.90311893     0.09100
C1385       C  0.05674405  0.77119500  0.89757611    -0.54400
C1386       C  0.04187695  0.78600513  0.93178462     0.09600
H1387       H  0.50480762  0.79696465  0.82588648     0.14200
H1388       H  0.01271832  0.83674342  0.95240287    -0.00100
H1389       H  0.08352807  0.84578117  0.85073278     0.14500
H1390       H  0.06706375  0.74276995  0.89670334     0.14300
C1391       C  0.05233816  0.70479686  0.62915604     0.86100
C1392       C  0.01621960  0.70301928  0.63582160    -0.54200
C1393       C  0.99938171  0.68361848  0.60727668     0.09000
C1394       C  0.02160315  0.66745650  0.57265777     0.19900
C1395       C  0.06396003  0.66431295  0.62406151    -0.54900
C1396       C  0.04769125  0.64349972  0.59556445     0.09100
C1397       C  0.05587073  0.72212755  0.58589468    -0.54400
C1398       C  0.03968202  0.70254353  0.55576866     0.09600
H1399       H  0.50517890  0.71884663  0.66100515     0.14200
H1400       H  0.00843137  0.65161387  0.54893816    -0.00100
H1401       H  0.08254690  0.65348884  0.64423967     0.14500
H1402       H  0.06783267  0.74854363  0.58030574     0.14300
N1403       N  0.05036515  0.74620218  0.49532542    -0.03900
C1404       C  0.03178774  0.75920595  0.96398719    -0.01300
C1405       C  0.00493381  0.73726607  0.95988132    -0.24200
C1406       C  0.00600096  0.71131156  0.49138942    -0.24400
C1407       C  0.03367225  0.71810747  0.51358751    -0.01400
H1408       H  0.98663403  0.73970319  0.93628915     0.12400
H1409       H  0.98754525  0.69118227  0.49830075     0.12400
C1410       C  0.05198507  0.95468625  0.86905296     0.86100
C1411       C  0.06418500  0.91439963  0.87477829    -0.54200
C1412       C  0.04751264  0.89362122  0.90343106     0.09000
C1413       C  0.02097499  0.91775751  0.92622080     0.19900
C1414       C  0.01600071  0.95216247  0.86245974    -0.54900
C1415       C  0.99895920  0.93321348  0.89152518     0.09100
C1416       C  0.05479293  0.97274437  0.91166180    -0.54400
C1417       C  0.03860011  0.95345916  0.94219097     0.09600
H1418       H  0.08346041  0.90364605  0.85508495     0.14200
H1419       H  0.00771382  0.90217628  0.95038861    -0.00100
H1420       H  0.50519580  0.96739985  0.83698635     0.14500
H1421       H  0.06636485  0.99947259  0.91649872     0.14300
C1422       C  0.05293586  0.54552254  0.63932484     0.86100
C1423       C  0.06587482  0.58336993  0.62784859    -0.54200
C1424       C  0.05004316  0.60107924  0.59573933     0.09000
C1425       C  0.02487009  0.57494844  0.57492444     0.19900
C1426       C  0.01670720  0.55244091  0.64410930    -0.54900
C1427       C  0.00104262  0.56613540  0.61015718     0.09100
C1428       C  0.05736498  0.52138722  0.60074724    -0.54400
C1429       C  0.04271282  0.53634952  0.56667488     0.09600
H1430       H  0.08293463  0.59604672  0.64829183     0.14200
H1431       H  0.01346358  0.58688997  0.54685215    -0.00100
H1432       H  0.50504507  0.54670965  0.67342069     0.14500
H1433       H  0.06763408  0.49294619  0.60138014     0.14300
N1434       N  0.04963700  0.49830401  0.00097732    -0.03900
C1435       C  0.03270673  0.96989313  0.98398175    -0.01300
C1436       C  0.00589358  0.96224909  0.00807021    -0.24200
C1437       C  0.00560837  0.48759859  0.54013320    -0.24400
C1438       C  0.03218076  0.50988554  0.53453346    -0.01400
H1439       H  0.98762542  0.94167156  0.00234263     0.12400
H1440       H  0.98815302  0.48928414  0.56522872     0.12400
O1441       O  0.81629015  0.20133774  0.04899460    -0.73400
O1442       O  0.81713548  0.24233824  0.43364770    -0.74400
O1443       O  0.86515097  0.22171044  0.49156010    -0.63000
O1444       O  0.76699259  0.22101169  0.48932014    -0.71400
O1445       O  0.76427526  0.27824925  0.01647739    -0.70900
O1446       O  0.86236672  0.27948950  0.01793686    -0.62200
O1447       O  0.81427818  0.29965337  0.46127383    -0.74700
O1448       O  0.81346084  0.25853299  0.07652427    -0.73500
Cu1449     Cu  0.81666809  0.21949935  0.49020962     1.04600
Cu1450     Cu  0.81378984  0.28091710  0.01904509     1.04300
C1451       C  0.81384303  0.22279661  0.08083480     0.92800
C1452       C  0.81464640  0.27806199  0.42969222     0.92000
C1453       C  0.87898295  0.25132266  0.00406992     0.84100
C1454       C  0.75001222  0.24970548  0.50136693     0.90400
O1455       O  0.69683254  0.27847558  0.00972903    -0.73400
O1456       O  0.59866339  0.27764453  0.00744285    -0.74400
O1457       O  0.64665910  0.25712686  0.06535499    -0.63000
O1458       O  0.64751157  0.29810958  0.45006553    -0.71400
O1459       O  0.65039987  0.24093421  0.42249339    -0.70900
O1460       O  0.64962001  0.19979343  0.03778137    -0.62200
O1461       O  0.60152940  0.21987704  0.48111054    -0.74700
O1462       O  0.69959521  0.22125965  0.48253331    -0.73500
Cu1463     Cu  0.64714356  0.27993140  0.00881116     1.04600
Cu1464     Cu  0.65009963  0.21852834  0.47998219     1.04300
C1465       C  0.71383556  0.24980087  0.99767113     0.92800
C1466       C  0.58489580  0.24800005  0.99497241     0.92000
C1467       C  0.64919687  0.22141340  0.06934429     0.84100
C1468       C  0.64998203  0.27667619  0.41821139     0.90400
C1469       C  0.66283970  0.29426601  0.37910186     0.86100
C1470       C  0.69902831  0.29495279  0.38532492    -0.54200
C1471       C  0.71639131  0.31411437  0.35671388     0.09000
C1472       C  0.69482933  0.33007905  0.32203286     0.19900
C1473       C  0.65217029  0.33517344  0.37390765    -0.54900
C1474       C  0.66944624  0.35500999  0.34516333     0.09100
C1475       C  0.65908011  0.27679495  0.33608539    -0.54400
C1476       C  0.67585011  0.29564880  0.30564096     0.09600
H1477       H  0.70958218  0.27949056  0.41083361     0.14200
H1478       H  0.70848476  0.34500227  0.29783692    -0.00100
H1479       H  0.63386085  0.34713708  0.39429398     0.14500
H1480       H  0.64621429  0.25098103  0.33075829     0.14300
C1481       C  0.65998234  0.20468764  0.10933548     0.86100
C1482       C  0.69616882  0.19726434  0.10476335    -0.54200
C1483       C  0.71145330  0.18322765  0.13877537     0.09000
C1484       C  0.68729681  0.17359654  0.17335696     0.19900
C1485       C  0.64636927  0.16700533  0.12002261    -0.54900
C1486       C  0.66169876  0.14812497  0.15178024     0.09100
C1487       C  0.65559305  0.22821714  0.14815528    -0.54400
C1488       C  0.67013165  0.21262553  0.18193869     0.09600
H1489       H  0.70826641  0.20383996  0.07595696     0.14200
H1490       H  0.69841804  0.16083090  0.20122976    -0.00100
H1491       H  0.62853193  0.15570879  0.09972960     0.14500
H1492       H  0.64581335  0.25689374  0.14781891     0.14300
N1493       N  0.66334289  0.25279474  0.24539360    -0.03900
C1494       C  0.68076211  0.28042767  0.26297318    -0.01300
C1495       C  0.70834790  0.28643888  0.23963529    -0.24200
C1496       C  0.70862737  0.26034355  0.20820348    -0.24400
C1497       C  0.68137516  0.23915284  0.21350348    -0.01400
H1498       H  0.72737551  0.30594689  0.24586337     0.12400
H1499       H  0.72663679  0.25740027  0.18389304     0.12400
C1500       C  0.66378592  0.45658710  0.38291092     0.86100
C1501       C  0.65276846  0.41683180  0.37587955    -0.54200
C1502       C  0.66983608  0.39712839  0.34618126     0.09000
C1503       C  0.69541175  0.42149433  0.32386181     0.19900
C1504       C  0.69996761  0.45321459  0.38904881    -0.54900
C1505       C  0.71737378  0.43538865  0.35860510     0.09100
C1506       C  0.66011159  0.47617049  0.34099450    -0.54400
C1507       C  0.67667484  0.45768177  0.30954802     0.09600
H1508       H  0.63445532  0.40530749  0.39588023     0.14200
H1509       H  0.70881483  0.40678761  0.29876931    -0.00100
H1510       H  0.71018381  0.46610424  0.41597676     0.14500
H1511       H  0.64748195  0.50303699  0.33719681     0.14300
C1512       C  0.65782187  0.04677418  0.11287751     0.86100
C1513       C  0.64586400  0.08649206  0.12106160    -0.54200
C1514       C  0.66157865  0.10522871  0.15205505     0.09000
C1515       C  0.68644015  0.07851598  0.17476282     0.19900
C1516       C  0.69412038  0.04996768  0.10800484    -0.54900
C1517       C  0.71010544  0.06535402  0.14024517     0.09100
C1518       C  0.65256556  0.02593754  0.15323485    -0.54400
C1519       C  0.66784694  0.04168924  0.18611452     0.09600
H1520       H  0.62837918  0.09862713  0.10019905     0.14200
H1521       H  0.69815833  0.09170644  0.20164087    -0.00100
H1522       H  0.70547760  0.04004965  0.07977887     0.14500
H1523       H  0.64205666  0.99817009  0.15447519     0.14300
N1524       N  0.66331606  0.50329397  0.25188549    -0.03900
C1525       C  0.68145403  0.47458230  0.26791275    -0.01300
C1526       C  0.70751853  0.46611174  0.24232259    -0.24200
C1527       C  0.70643038  0.99174410  0.21063545    -0.24400
C1528       C  0.67980176  0.01500289  0.21789522    -0.01400
H1529       H  0.72622435  0.44479167  0.24673217     0.12400
H1530       H  0.72299481  0.99287537  0.18460891     0.12400
O1531       O  0.76612294  0.47077372  0.01458237    -0.73400
O1532       O  0.86563459  0.46989739  0.01498896    -0.74400
O1533       O  0.81536359  0.49008545  0.07348574    -0.63000
O1534       O  0.81773842  0.44874309  0.45834546    -0.71400
O1535       O  0.81674289  0.00585783  0.43040294    -0.70900
O1536       O  0.81357986  0.04722764  0.04562362    -0.62200
O1537       O  0.86306601  0.02768143  0.48876133    -0.74700
O1538       O  0.76563830  0.02771008  0.48666291    -0.73500
Cu1539     Cu  0.81644349  0.46778139  0.01626990     1.04600
Cu1540     Cu  0.81498219  0.02906181  0.48711688     1.04300
C1541       C  0.75012513  0.49946021  0.50031468     0.92800
C1542       C  0.87959333  0.49927865  0.50133167     0.92000
C1543       C  0.81302085  0.02577179  0.07749228     0.84100
C1544       C  0.81686318  0.47004246  0.42651733     0.90400
O1545       O  0.64597746  0.05069228  0.04149497    -0.73400
O1546       O  0.64843516  0.00937405  0.42635439    -0.74400
O1547       O  0.59814309  0.02944530  0.48482200    -0.63000
O1548       O  0.69766174  0.02875549  0.48526905    -0.71400
O1549       O  0.69819624  0.47179586  0.01313075    -0.70900
O1550       O  0.60079203  0.47168077  0.01109278    -0.62200
O1551       O  0.65025474  0.45222911  0.45417856    -0.74700
O1552       O  0.64711828  0.49360071  0.06944921    -0.73500
Cu1553     Cu  0.64732639  0.03165931  0.48356466     1.04600
Cu1554     Cu  0.64886986  0.47037783  0.01270878     1.04300
C1555       C  0.64691473  0.02941495  0.07333458     0.92800
C1556       C  0.65079117  0.47371201  0.42232639     0.92000
C1557       C  0.58422006  0.00003748  0.49849506     0.84100
C1558       C  0.71364455  0.50010791  0.49951158     0.90400
C1559       C  0.80595817  0.45277402  0.38693110     0.86100
C1560       C  0.76966758  0.44951733  0.39180470    -0.54200
C1561       C  0.75368955  0.43427117  0.35947795     0.09000
C1562       C  0.77735238  0.42125770  0.32489557     0.19900
C1563       C  0.81794099  0.41310052  0.37856428    -0.54900
C1564       C  0.80223173  0.39447592  0.34747455     0.09100
C1565       C  0.81118525  0.47377665  0.34666802    -0.54400
C1566       C  0.79591987  0.45813486  0.31371856     0.09600
H1567       H  0.75830875  0.45926975  0.42009957     0.14200
H1568       H  0.76563712  0.40816590  0.29795710    -0.00100
H1569       H  0.83542223  0.40089831  0.39938692     0.14500
H1570       H  0.82168843  0.50155085  0.34554276     0.14300
C1571       C  0.80001712  0.04296319  0.11686438     0.86100
C1572       C  0.76383546  0.04636356  0.11070156    -0.54200
C1573       C  0.74642854  0.06425124  0.14110502     0.09000
C1574       C  0.76840095  0.07821898  0.17580481     0.19900
C1575       C  0.81106844  0.08271541  0.12379662    -0.54900
C1576       C  0.79399161  0.10251647  0.15339851     0.09100
C1577       C  0.80367011  0.02347031  0.15882633    -0.54400
C1578       C  0.78712291  0.04204878  0.19022331     0.09600
H1579       H  0.75362431  0.03346417  0.08377776     0.14200
H1580       H  0.75500755  0.09299300  0.20086024    -0.00100
H1581       H  0.82940089  0.09417227  0.10377693     0.14500
H1582       H  0.81628947  0.99660673  0.16269508     0.14300
N1583       N  0.80045513  0.49652276  0.24795101    -0.03900
C1584       C  0.78400660  0.48489394  0.28198790    -0.01300
C1585       C  0.75742900  0.50822863  0.28926946    -0.24200
C1586       C  0.75635734  0.03382284  0.25755265    -0.24400
C1587       C  0.78237896  0.02525746  0.23192151    -0.01400
H1588       H  0.74087570  0.50714311  0.31531221     0.12400
H1589       H  0.73767718  0.05517355  0.25313732     0.12400
C1590       C  0.80384725  0.29487556  0.38974642     0.86100
C1591       C  0.81746130  0.33258933  0.37920005    -0.54200
C1592       C  0.80212230  0.35158088  0.34753555     0.09000
C1593       C  0.77652153  0.32618255  0.32585536     0.19900
C1594       C  0.76765608  0.30228275  0.39434739    -0.54900
C1595       C  0.75236296  0.31642926  0.36039179     0.09100
C1596       C  0.80823596  0.27147602  0.35083685    -0.54400
C1597       C  0.79369386  0.28718416  0.31711314     0.09600
H1598       H  0.83531503  0.34381436  0.39951818     0.14200
H1599       H  0.76539882  0.33904154  0.29803273    -0.00100
H1600       H  0.75556273  0.29560693  0.42312666     0.14500
H1601       H  0.81800619  0.24279406  0.35106829     0.14300
C1602       C  0.80097621  0.20527962  0.11998180     0.86100
C1603       C  0.81161977  0.16437801  0.12530446    -0.54200
C1604       C  0.79434407  0.14464086  0.15414586     0.09000
C1605       C  0.76896394  0.16964534  0.17717010     0.19900
C1606       C  0.76479066  0.20459693  0.11375678    -0.54900
C1607       C  0.74741942  0.18552619  0.14243364     0.09100
C1608       C  0.80473446  0.22286540  0.16294839    -0.54400
C1609       C  0.78794503  0.20410628  0.19344653     0.09600
H1610       H  0.82991797  0.15234918  0.10494678     0.14200
H1611       H  0.75529625  0.15479368  0.20140879    -0.00100
H1612       H  0.75424411  0.21999889  0.08819956     0.14500
H1613       H  0.81760056  0.24869301  0.16819795     0.14300
N1614       N  0.80044726  0.24703881  0.25362947    -0.03900
C1615       C  0.78298234  0.21945281  0.23604359    -0.01300
C1616       C  0.75535325  0.21354663  0.25932766    -0.24200
C1617       C  0.75509807  0.23965526  0.29073776    -0.24400
C1618       C  0.78240948  0.26075046  0.28548418    -0.05400
H1619       H  0.73629903  0.19407572  0.25309771     0.12400
H1620       H  0.73708102  0.24263840  0.31503218     0.12400
O1621       O  0.61256163  0.27993163  0.23152669    -0.73400
O1622       O  0.51437418  0.27832131  0.23233170    -0.74400
O1623       O  0.56350996  0.30049683  0.28759309    -0.63000
O1624       O  0.56450821  0.25854444  0.17230393    -0.71400
O1625       O  0.56661557  0.20154560  0.20026554    -0.70900
O1626       O  0.56634777  0.24321252  0.31520793    -0.62200
O1627       O  0.51686358  0.22131376  0.26010275    -0.74700
O1628       O  0.61472618  0.22210130  0.25772914    -0.73500
Cu1629     Cu  0.56393631  0.28129330  0.22989619     1.04600
Cu1630     Cu  0.56640761  0.21998158  0.25898846     1.04300
C1631       C  0.62881979  0.25172818  0.24563040     0.92800
C1632       C  0.00000448  0.24979158  0.24773297     0.92000
C1633       C  0.56379038  0.27894024  0.31917864     0.84100
C1634       C  0.56464810  0.22277497  0.16823522     0.90400
O1635       O  0.89723012  0.29804093  0.29882198    -0.73400
O1636       O  0.89751592  0.25638188  0.18384081    -0.74400
O1637       O  0.84912042  0.27760995  0.24128797    -0.63000
O1638       O  0.94696968  0.27820379  0.23901066    -0.71400
O1639       O  0.94939924  0.22118448  0.26675812    -0.70900
O1640       O  0.85118405  0.21978444  0.26751079    -0.62200
O1641       O  0.90023083  0.19910802  0.21149611    -0.74700
O1642       O  0.89925017  0.24102345  0.32674893    -0.73500
Cu1643     Cu  0.89744228  0.27962336  0.24007578     1.04600
Cu1644     Cu  0.89981445  0.21830735  0.26916790     1.04300
C1645       C  0.89915843  0.27678612  0.33083917     0.92800
C1646       C  0.90001282  0.22064486  0.17989902     0.92000
C1647       C  0.83497407  0.24802359  0.25340025     0.84100
C1648       C  0.96379947  0.24970397  0.25137603     0.90400
C1649       C  0.91145405  0.29469394  0.36994938     0.86100
C1650       C  0.89983972  0.33516457  0.37515943    -0.54200
C1651       C  0.91610739  0.35589183  0.40373799     0.09000
C1652       C  0.94220152  0.33188172  0.42655400     0.19900
C1653       C  0.94757046  0.29648171  0.36328091    -0.54900
C1654       C  0.96441195  0.31580093  0.39188830     0.09100
C1655       C  0.90793135  0.27725443  0.41316446    -0.54400
C1656       C  0.92413401  0.29676203  0.44333789     0.09600
H1657       H  0.88126096  0.34604460  0.35500289     0.14200
H1658       H  0.95537875  0.34766273  0.45031760    -0.00100
H1659       H  0.95860767  0.28071254  0.33805104     0.14500
H1660       H  0.89598113  0.25081852  0.41868129     0.14300
C1661       C  0.91119091  0.20408008  0.13978313     0.86100
C1662       C  0.89795938  0.16626759  0.12836513    -0.54200
C1663       C  0.91411765  0.14835829  0.09619930     0.09000
C1664       C  0.93958544  0.17447855  0.07509788     0.19900
C1665       C  0.94739247  0.19686862  0.14415604    -0.54900
C1666       C  0.96322065  0.18321706  0.10997534     0.09100
C1667       C  0.90710742  0.22821611  0.10146071    -0.54400
C1668       C  0.92197045  0.21328908  0.06730633     0.09600
H1669       H  0.88025619  0.15378973  0.14852357     0.14200
H1670       H  0.95111081  0.16248933  0.04685939    -0.00100
H1671       H  0.95901912  0.20261318  0.17324347     0.14500
H1672       H  0.89681377  0.25665526  0.10224060     0.14300
N1673       N  0.91350133  0.25305427  0.00373479    -0.03900
C1674       C  0.93210950  0.23998482  0.03504102    -0.01300
C1675       C  0.95904468  0.26179840  0.03907747    -0.24200
C1676       C  0.95792406  0.28779610  0.50758042    -0.24400
C1677       C  0.93020652  0.28109079  0.48544627    -0.01400
H1678       H  0.97736207  0.25930010  0.06264048     0.12400
H1679       H  0.97639865  0.30789570  0.50066245     0.12400
C1680       C  0.91082689  0.45400804  0.36043129     0.86100
C1681       C  0.94706302  0.44712401  0.35563419    -0.54200
C1682       C  0.96272937  0.43331080  0.38953171     0.09000
C1683       C  0.93889350  0.42436707  0.42471161     0.19900
C1684       C  0.89789570  0.41611940  0.37174855    -0.54900
C1685       C  0.91373155  0.39830358  0.40377529     0.09100
C1686       C  0.90637911  0.47800758  0.39910206    -0.54400
C1687       C  0.92103234  0.46292774  0.43311841     0.09600
H1688       H  0.95872474  0.45296506  0.32635141     0.14200
H1689       H  0.95029615  0.41233647  0.45274342    -0.00100
H1690       H  0.88083200  0.40350663  0.35126134     0.14500
H1691       H  0.89611431  0.50645268  0.39857345     0.14300
C1692       C  0.91185004  0.04481127  0.13069726     0.86100
C1693       C  0.94783378  0.04734330  0.13727695    -0.54200
C1694       C  0.96487250  0.06622202  0.10815220     0.09000
C1695       C  0.94286319  0.08158576  0.07341130     0.19900
C1696       C  0.89966034  0.08508606  0.12485920    -0.54900
C1697       C  0.91632421  0.10577570  0.09611324     0.09100
C1698       C  0.90904110  0.02664637  0.08813823    -0.54400
C1699       C  0.92524577  0.04585007  0.05755724     0.09600
H1700       H  0.95864222  0.03215808  0.16278595     0.14200
H1701       H  0.95612682  0.09710200  0.04919443    -0.00100
H1702       H  0.88040085  0.09589859  0.14454055     0.14500
H1703       H  0.89747632  0.99990151  0.08337738     0.14300
N1704       N  0.91419110  0.00094855  0.49883385    -0.03900
C1705       C  0.93119258  0.02930312  0.01584168    -0.01300
C1706       C  0.95805946  0.03683802  0.99181090    -0.24200
C1707       C  0.95824723  0.51148216  0.45976476    -0.24400
C1708       C  0.93160932  0.48929426  0.46531988    -0.01400
H1709       H  0.97635914  0.05737338  0.99754495     0.12400
H1710       H  0.97571279  0.50975454  0.43468405     0.12400
O1711       O  0.51704593  0.47156166  0.23903122    -0.73400
O1712       O  0.61423423  0.47434763  0.24187445    -0.74400
O1713       O  0.56631515  0.45213499  0.29809178    -0.63000
O1714       O  0.56682123  0.49389208  0.18378594    -0.71400
O1715       O  0.56376913  0.05131723  0.21111316    -0.70900
O1716       O  0.56396546  0.00897016  0.32658009    -0.62200
O1717       O  0.61285764  0.03214372  0.26825734    -0.74700
O1718       O  0.51414593  0.02855839  0.26687198    -0.73500
Cu1719     Cu  0.56642972  0.47105558  0.24005573     1.04600
Cu1720     Cu  0.56380335  0.03233715  0.26928078     1.04300
C1721       C  0.99997973  0.49993113  0.25156821     0.92800
C1722       C  0.62875819  0.50348735  0.25436860     0.92000
C1723       C  0.56428070  0.47311038  0.33023597     0.84100
C1724       C  0.56412150  0.02953298  0.17958550     0.90400
O1725       O  0.94963630  0.47096757  0.23293964    -0.73400
O1726       O  0.85089763  0.46757251  0.23155517    -0.74400
O1727       O  0.89982619  0.49059749  0.17323431    -0.63000
O1728       O  0.89996156  0.44830994  0.28867571    -0.71400
O1729       O  0.89703508  0.00570695  0.31604451    -0.70900
O1730       O  0.89752677  0.04745123  0.20168700    -0.62200
O1731       O  0.84960669  0.02535245  0.25797173    -0.74700
O1732       O  0.94678540  0.02798065  0.26074013    -0.73500
Cu1733     Cu  0.89995903  0.46727403  0.23052926     1.04600
Cu1734     Cu  0.89741481  0.02855415  0.25975296     1.04300
C1735       C  0.96380347  0.49958942  0.24822146     0.92800
C1736       C  0.83501427  0.49625579  0.24545970     0.92000
C1737       C  0.89953313  0.02644724  0.16955925     0.84100
C1738       C  0.89966054  0.47007756  0.32021205     0.90400
C1739       C  0.55261786  0.29542569  0.35933982     0.86100
C1740       C  0.51641809  0.30262637  0.35499356    -0.54200
C1741       C  0.50059084  0.31617948  0.38921721     0.09000
C1742       C  0.52421905  0.32482579  0.42413427     0.19900
C1743       C  0.56582640  0.33322036  0.37087950    -0.54900
C1744       C  0.54967315  0.35102247  0.40312860     0.09100
C1745       C  0.55671501  0.27118403  0.39758682    -0.54400
C1746       C  0.54184663  0.28599795  0.43179237     0.09600
H1747       H  0.00479113  0.29696013  0.32588649     0.14200
H1748       H  0.51268987  0.33673809  0.45240579    -0.00100
H1749       H  0.58351034  0.34576838  0.35074829     0.14500
H1750       H  0.56703355  0.24275841  0.39671772     0.14300
C1751       C  0.55235896  0.20479541  0.12915574     0.86100
C1752       C  0.51624190  0.20300892  0.13582561    -0.54200
C1753       C  0.49940448  0.18361189  0.10727895     0.09000
C1754       C  0.52162563  0.16745572  0.07265604     0.19900
C1755       C  0.56398793  0.16431550  0.12405351    -0.54900
C1756       C  0.54771893  0.14350150  0.09555770     0.09100
C1757       C  0.55588486  0.22213293  0.08589548    -0.54400
C1758       C  0.53969854  0.20254714  0.05576781     0.09600
H1759       H  0.00520069  0.21883099  0.16101281     0.14200
H1760       H  0.50845432  0.15161248  0.04893677    -0.00100
H1761       H  0.58257740  0.15349307  0.14422881     0.14500
H1762       H  0.56784365  0.24855111  0.08030782     0.14300
N1763       N  0.55038167  0.24620569  0.99532340    -0.03900
C1764       C  0.53176062  0.25920629  0.46400309    -0.01300
C1765       C  0.50490186  0.23727247  0.45991111    -0.24200
C1766       C  0.50602945  0.21129521  0.99137273    -0.24400
C1767       C  0.53369260  0.21810560  0.01358182    -0.01400
H1768       H  0.48659674  0.23971093  0.43632578     0.12400
H1769       H  0.48757875  0.19115804  0.99827796     0.12400
C1770       C  0.55196074  0.45467637  0.36905969     0.86100
C1771       C  0.56415686  0.41438864  0.37478197    -0.54200
C1772       C  0.54748561  0.39361165  0.40343616     0.09000
C1773       C  0.52094946  0.41774928  0.42622845     0.19900
C1774       C  0.51597567  0.45215897  0.36247048    -0.54900
C1775       C  0.49893356  0.43320955  0.39153517     0.09100
C1776       C  0.55477185  0.47273242  0.41166998    -0.54400
C1777       C  0.53857650  0.45344901  0.44219938     0.09600
H1778       H  0.58343044  0.40363386  0.35508658     0.14200
H1779       H  0.50768758  0.40216864  0.45039620    -0.00100
H1780       H  0.00517079  0.46740228  0.33700110     0.14500
H1781       H  0.56634405  0.49946043  0.41650627     0.14300
C1782       C  0.55296088  0.04552461  0.13932308     0.86100
C1783       C  0.56589945  0.08337330  0.12785023    -0.54200
C1784       C  0.55007101  0.10108135  0.09573690     0.09000
C1785       C  0.52490077  0.07494978  0.07491816     0.19900
C1786       C  0.51673211  0.05244216  0.14410210    -0.54900
C1787       C  0.50107018  0.06613592  0.11014764     0.09100
C1788       C  0.55739523  0.02139065  0.10074531    -0.54400
C1789       C  0.54274644  0.03635235  0.06667059     0.09600
H1790       H  0.58295627  0.09605122  0.14829689     0.14200
H1791       H  0.51349645  0.08689101  0.04684429    -0.00100
H1792       H  0.00506810  0.04671312  0.17341281     0.14500
H1793       H  0.56766512  0.99295001  0.10137938     0.14300
N1794       N  0.54966504  0.99829895  0.50096732    -0.03900
C1795       C  0.53267534  0.46988829  0.48398669    -0.01300
C1796       C  0.50585808  0.46224904  0.50806992    -0.24200
C1797       C  0.50564590  0.98759680  0.04013434    -0.24400
C1798       C  0.53221609  0.00988659  0.03453040    -0.01400
H1799       H  0.48758986  0.44167206  0.50234072     0.12400
H1800       H  0.48819279  0.98928024  0.06523252     0.12400
O1801       O  0.81627399  0.20134195  0.54898972    -0.73400
O1802       O  0.81717511  0.24232240  0.93364426    -0.74400
O1803       O  0.86518094  0.22171192  0.99156907    -0.63000
O1804       O  0.76702002  0.22098622  0.98930577    -0.71400
O1805       O  0.76425665  0.27827430  0.51649442    -0.70900
O1806       O  0.86234675  0.27948623  0.51793412    -0.62200
O1807       O  0.81430653  0.29963778  0.96126893    -0.74700
O1808       O  0.81345377  0.25853442  0.57652726    -0.73500
Cu1809     Cu  0.81669762  0.21948753  0.99020866     1.04600
Cu1810     Cu  0.81377162  0.28092751  0.51905129     1.04300
C1811       C  0.81384062  0.22279710  0.58083338     0.92800
C1812       C  0.81468468  0.27804614  0.92968799     0.92000
C1813       C  0.87895795  0.25131513  0.50406798     0.84100
C1814       C  0.75003450  0.24967583  0.00135393     0.90400
O1815       O  0.69681152  0.27851119  0.50973232    -0.73400
O1816       O  0.59864490  0.27765891  0.50746183    -0.74400
O1817       O  0.64665325  0.25714318  0.56536211    -0.63000
O1818       O  0.64754593  0.29808239  0.95005563    -0.71400
O1819       O  0.65042720  0.24090777  0.92248200    -0.70900
O1820       O  0.64961994  0.19981271  0.53778103    -0.62200
O1821       O  0.60154178  0.21985993  0.98109911    -0.74700
O1822       O  0.69961310  0.22122280  0.98253399    -0.73500
Cu1823     Cu  0.64712310  0.27995574  0.50882141     1.04600
Cu1824     Cu  0.65011389  0.21850253  0.97997698     1.04300
C1825       C  0.71381519  0.24983660  0.49767588     0.92800
C1826       C  0.58488111  0.24801394  0.49498662     0.92000
C1827       C  0.64920209  0.22142965  0.56934563     0.84100
C1828       C  0.65001840  0.27665047  0.91820094     0.90400
C1829       C  0.66288162  0.29424517  0.87909440     0.86100
C1830       C  0.69906886  0.29493353  0.88532184    -0.54200
C1831       C  0.71643198  0.31410058  0.85671523     0.09000
C1832       C  0.69487286  0.33007122  0.82203434     0.19900
C1833       C  0.65221175  0.33515399  0.87390637    -0.54900
C1834       C  0.66948463  0.35499569  0.84516280     0.09100
C1835       C  0.65912704  0.27678198  0.83607270    -0.54400
C1836       C  0.67589769  0.29564408  0.80563389     0.09600
H1837       H  0.70962193  0.27946676  0.91082787     0.14200
H1838       H  0.70853031  0.34499890  0.79784330    -0.00100
H1839       H  0.63389990  0.34711315  0.89429187     0.14500
H1840       H  0.64626219  0.25096888  0.83073779     0.14300
C1841       C  0.65999412  0.20470049  0.60933219     0.86100
C1842       C  0.69618029  0.19726734  0.60475707    -0.54200
C1843       C  0.71146402  0.18322934  0.63877160     0.09000
C1844       C  0.68730732  0.17360617  0.67335279     0.19900
C1845       C  0.64637500  0.16702260  0.62002273    -0.54900
C1846       C  0.66170381  0.14813991  0.65177890     0.09100
C1847       C  0.65561169  0.22823236  0.64814999    -0.54400
C1848       C  0.67015257  0.21264078  0.68193065     0.09600
H1849       H  0.70827779  0.20383972  0.57594932     0.14200
H1850       H  0.69842695  0.16083995  0.70122637    -0.00100
H1851       H  0.62853468  0.15572936  0.59973183     0.14500
H1852       H  0.64583677  0.25691110  0.64781310     0.14300
N1853       N  0.66338040  0.25281582  0.74537633    -0.03900
C1854       C  0.68080640  0.28043773  0.76296062    -0.01300
C1855       C  0.70839356  0.28644261  0.73962229    -0.24200
C1856       C  0.70866515  0.26035027  0.70818592    -0.24400
C1857       C  0.68140695  0.23916924  0.71348597    -0.01400
H1858       H  0.72742675  0.30594225  0.74585444     0.12400
H1859       H  0.72667385  0.25740153  0.68387522     0.12400
C1860       C  0.66379197  0.45657027  0.88289674     0.86100
C1861       C  0.65277682  0.41681533  0.87585563    -0.54200
C1862       C  0.66985004  0.39711645  0.84615821     0.09000
C1863       C  0.69542236  0.42149119  0.82384190     0.19900
C1864       C  0.69997381  0.45319601  0.88903823    -0.54900
C1865       C  0.71738275  0.43537817  0.85859102     0.09100
C1866       C  0.66011854  0.47616187  0.84098626    -0.54400
C1867       C  0.67668274  0.45768202  0.80953601     0.09600
H1868       H  0.63446789  0.40528461  0.89585785     0.14200
H1869       H  0.70882589  0.40679077  0.79874515    -0.00100
H1870       H  0.71018712  0.46607030  0.91597676     0.14500
H1871       H  0.64748731  0.50302831  0.83719528     0.14300
C1872       C  0.65781994  0.04679179  0.61287085     0.86100
C1873       C  0.64586488  0.08651014  0.62105641    -0.54200
C1874       C  0.66158076  0.10524412  0.65205077     0.09000
C1875       C  0.68644160  0.07852955  0.67475627     0.19900
C1876       C  0.69411906  0.04998263  0.60799651    -0.54900
C1877       C  0.71010582  0.06536849  0.64023670     0.09100
C1878       C  0.65256460  0.02595403  0.65322853    -0.54400
C1879       C  0.66784687  0.04170388  0.68610874     0.09600
H1880       H  0.62838164  0.09864778  0.60019354     0.14200
H1881       H  0.69816107  0.09171872  0.70163406    -0.00100
H1882       H  0.70547524  0.04005921  0.57977220     0.14500
H1883       H  0.64205482  0.99818706  0.65446859     0.14300
N1884       N  0.66331947  0.50331693  0.75189329    -0.03900
C1885       C  0.68145725  0.47459636  0.76790545    -0.01300
C1886       C  0.70751541  0.46612813  0.74230429    -0.24200
C1887       C  0.70642547  0.99175212  0.71062449    -0.24400
C1888       C  0.67980147  0.01501681  0.71789051    -0.01400
H1889       H  0.72621792  0.44480135  0.74669953     0.12400
H1890       H  0.72298378  0.99287658  0.68459114     0.12400
O1891       O  0.76611256  0.47080038  0.51460219    -0.73400
O1892       O  0.86562406  0.46989726  0.51499536    -0.74400
O1893       O  0.81535970  0.49010530  0.57349716    -0.63000
O1894       O  0.81775697  0.44873447  0.95833225    -0.71400
O1895       O  0.81674780  0.00584108  0.93040472    -0.70900
O1896       O  0.81358675  0.04723275  0.54562831    -0.62200
O1897       O  0.86306246  0.02767441  0.98876578    -0.74700
O1898       O  0.76564112  0.02769020  0.98665479    -0.73500
Cu1899     Cu  0.81643221  0.46779564  0.51628298     1.04600
Cu1900     Cu  0.81498164  0.02904947  0.98711498     1.04300
C1901       C  0.75013304  0.49943333  0.00029811     0.92800
C1902       C  0.87959924  0.49928153  0.00132419     0.92000
C1903       C  0.81302156  0.02577237  0.57749301     0.84100
C1904       C  0.81687352  0.47003453  0.92650510     0.90400
O1905       O  0.64596669  0.05070842  0.54148779    -0.73400
O1906       O  0.64844144  0.00937256  0.92635971    -0.74400
O1907       O  0.59814803  0.02943982  0.98483355    -0.63000
O1908       O  0.69766942  0.02873966  0.98527302    -0.71400
O1909       O  0.69819057  0.47182023  0.51314600    -0.70900
O1910       O  0.60078802  0.47168438  0.51110784    -0.62200
O1911       O  0.65025699  0.45221032  0.95416377    -0.74700
O1912       O  0.64711217  0.49361001  0.56946460    -0.73500
Cu1913     Cu  0.64733438  0.03164939  0.98357215     1.04600
Cu1914     Cu  0.64886566  0.47039187  0.51272410     1.04300
C1915       C  0.64690793  0.02943293  0.57332926     0.92800
C1916       C  0.65079425  0.47369320  0.92231185     0.92000
C1917       C  0.58422032  0.00003337  0.99850405     0.84100
C1918       C  0.71365268  0.50008057  0.99949332     0.90400
C1919       C  0.80596721  0.45276297  0.88692258     0.86100
C1920       C  0.76967598  0.44950927  0.89179432    -0.54200
C1921       C  0.75369911  0.43425488  0.85947089     0.09000
C1922       C  0.77736424  0.42123414  0.82489353     0.19900
C1923       C  0.81795034  0.41308888  0.87856781    -0.54900
C1924       C  0.80224634  0.39445979  0.84747935     0.09100
C1925       C  0.81119610  0.47375714  0.84665438    -0.54400
C1926       C  0.79592926  0.45811024  0.81370834     0.09600
H1927       H  0.75831601  0.45927731  0.92008190     0.14200
H1928       H  0.76565010  0.40813610  0.79795794    -0.00100
H1929       H  0.83543102  0.40089057  0.89939404     0.14500
H1930       H  0.82169778  0.50153194  0.84552408     0.14300
C1931       C  0.80001685  0.04296053  0.61686543     0.86100
C1932       C  0.76383668  0.04638120  0.61069159    -0.54200
C1933       C  0.74642959  0.06426304  0.64109864     0.09000
C1934       C  0.76840190  0.07821376  0.67580785     0.19900
C1935       C  0.81108197  0.08270471  0.62381484    -0.54900
C1936       C  0.79400265  0.10250802  0.65341234     0.09100
C1937       C  0.80365587  0.02345374  0.65882107    -0.54400
C1938       C  0.78711207  0.04203181  0.69022025     0.09600
H1939       H  0.75362594  0.03350112  0.58375629     0.14200
H1940       H  0.75500984  0.09298653  0.70086550    -0.00100
H1941       H  0.82942187  0.09415858  0.60380427     0.14500
H1942       H  0.81626773  0.99658498  0.66268514     0.14300
N1943       N  0.80045091  0.49650160  0.74794260    -0.03900
C1944       C  0.78400696  0.48486767  0.78198091    -0.01300
C1945       C  0.75743399  0.50820634  0.78927693    -0.24200
C1946       C  0.75635600  0.03381047  0.75755795    -0.24400
C1947       C  0.78237052  0.02523719  0.73191820    -0.01400
H1948       H  0.74088735  0.50712078  0.81532639     0.12400
H1949       H  0.73767831  0.05516498  0.75314656     0.12400
C1950       C  0.80388803  0.29485949  0.88974248     0.86100
C1951       C  0.81749856  0.33257612  0.87919625    -0.54200
C1952       C  0.80215493  0.35156587  0.84753317     0.09000
C1953       C  0.77655830  0.32616528  0.82585440     0.19900
C1954       C  0.76769626  0.30226244  0.89434489    -0.54900
C1955       C  0.75240248  0.31641045  0.86039133     0.09100
C1956       C  0.80827812  0.27146158  0.85083288    -0.54400
C1957       C  0.79373372  0.28717039  0.81711138     0.09600
H1958       H  0.83535057  0.34380500  0.89951470     0.14200
H1959       H  0.76543491  0.33902264  0.79803153    -0.00100
H1960       H  0.75560276  0.29558502  0.92312374     0.14500
H1961       H  0.81804946  0.24278014  0.85106291     0.14300
C1962       C  0.80098512  0.20527531  0.61998175     0.86100
C1963       C  0.81162380  0.16436953  0.62529652    -0.54200
C1964       C  0.79435104  0.14463392  0.65414401     0.09000
C1965       C  0.76897643  0.16964179  0.67717260     0.19900
C1966       C  0.76479933  0.20460140  0.61376551    -0.54900
C1967       C  0.74742972  0.18552817  0.64243858     0.09100
C1968       C  0.80475434  0.22285576  0.66294845    -0.54400
C1969       C  0.78796747  0.20409709  0.69344830     0.09600
H1970       H  0.82991824  0.15233927  0.60493393     0.14200
H1971       H  0.75530892  0.15479062  0.70141203    -0.00100
H1972       H  0.75424979  0.22000975  0.58821443     0.14500
H1973       H  0.81762615  0.24867953  0.66819794     0.14300
N1974       N  0.80048558  0.24702305  0.75363325    -0.03900
C1975       C  0.78301531  0.21944040  0.73604761    -0.01300
C1976       C  0.75538252  0.21354459  0.75932788    -0.24200
C1977       C  0.75513082  0.23965344  0.79073624    -0.24400
C1978       C  0.78244744  0.26073916  0.78548456    -0.05400
H1979       H  0.73632285  0.19408176  0.75309500     0.12400
H1980       H  0.73711231  0.24264312  0.81502785     0.12400
O1981       O  0.61259968  0.27995781  0.73151586    -0.73400
O1982       O  0.51441189  0.27833666  0.73233798    -0.74400
O1983       O  0.56355071  0.30053847  0.78758422    -0.63000
O1984       O  0.56453920  0.25854560  0.67230762    -0.71400
O1985       O  0.56664870  0.20155289  0.70028368    -0.70900
O1986       O  0.56640340  0.24325771  0.81520661    -0.62200
O1987       O  0.51690979  0.22133706  0.76012791    -0.74700
O1988       O  0.61476625  0.22212964  0.75772466    -0.73500
Cu1989     Cu  0.56397337  0.28131548  0.72989265     1.04600
Cu1990     Cu  0.56645205  0.22000947  0.75899887     1.04300
C1991       C  0.62885826  0.25175459  0.74562016     0.92800
C1992       C  0.00004665  0.24980750  0.74774802     0.92000
C1993       C  0.56383697  0.27898497  0.81917248     0.84100
C1994       C  0.56467612  0.22277470  0.66824814     0.90400
O1995       O  0.89727737  0.29803368  0.79883073    -0.73400
O1996       O  0.89754936  0.25638053  0.68385126    -0.74400
O1997       O  0.84915878  0.27760072  0.74130190    -0.63000
O1998       O  0.94700892  0.27820646  0.73901685    -0.71400
O1999       O  0.94944405  0.22118783  0.76676542    -0.70900
O2000       O  0.85122538  0.21977382  0.76751978    -0.62200
O2001       O  0.90026790  0.19910648  0.71150557    -0.74700
O2002       O  0.89929728  0.24101577  0.82675750    -0.73500
Cu2003     Cu  0.89748202  0.27961972  0.74008599     1.04600
Cu2004     Cu  0.89985775  0.21830320  0.76917652     1.04300
C2005       C  0.89920893  0.27677816  0.83084675     0.92800
C2006       C  0.90004000  0.22064329  0.67990853     0.92000
C2007       C  0.83501349  0.24801058  0.75340662     0.84100
C2008       C  0.96384164  0.24971073  0.75138596     0.90400
C2009       C  0.91150414  0.29468661  0.86995506     0.86100
C2010       C  0.89987993  0.33515328  0.87516619    -0.54200
C2011       C  0.91614117  0.35588551  0.90374624     0.09000
C2012       C  0.94224107  0.33188365  0.92656132     0.19900
C2013       C  0.94762019  0.29648555  0.86328709    -0.54900
C2014       C  0.96445574  0.31581289  0.89189355     0.09100
C2015       C  0.90798359  0.27724541  0.91316807    -0.54400
C2016       C  0.92417949  0.29675830  0.94334226     0.09600
H2017       H  0.88129877  0.34602690  0.85500961     0.14200
H2018       H  0.95541419  0.34766684  0.95032752    -0.00100
H2019       H  0.95866300  0.28071968  0.83805789     0.14500
H2020       H  0.89603662  0.25080731  0.91868473     0.14300
C2021       C  0.91120912  0.20407824  0.63979032     0.86100
C2022       C  0.89798907  0.16625617  0.62838734    -0.54200
C2023       C  0.91414399  0.14834932  0.59621733     0.09000
C2024       C  0.93960031  0.17447727  0.57510306     0.19900
C2025       C  0.94741223  0.19688608  0.64415312    -0.54900
C2026       C  0.96323917  0.18323142  0.60997548     0.09100
C2027       C  0.90710703  0.22820460  0.60146354    -0.54400
C2028       C  0.92196681  0.21327933  0.56730535     0.09600
H2029       H  0.88029188  0.15377526  0.64855270     0.14200
H2030       H  0.95112494  0.16248487  0.54686616    -0.00100
H2031       H  0.95903987  0.20263678  0.67323815     0.14500
H2032       H  0.89680281  0.25663876  0.60224222     0.14300
N2033       N  0.91347609  0.25304294  0.50372661    -0.03900
C2034       C  0.93209003  0.23998120  0.53503400    -0.01300
C2035       C  0.95901344  0.26181364  0.53907326    -0.24200
C2036       C  0.95796553  0.28778033  0.00758323    -0.24400
C2037       C  0.93024262  0.28109223  0.98545299    -0.01400
H2038       H  0.97733075  0.25932651  0.56263763     0.12400
H2039       H  0.97644929  0.30786750  0.00066025     0.12400
C2040       C  0.91083278  0.45399581  0.86043719     0.86100
C2041       C  0.94706976  0.44711809  0.85563511    -0.54200
C2042       C  0.96274136  0.43330935  0.88953137     0.09000
C2043       C  0.93891047  0.42436740  0.92471691     0.19900
C2044       C  0.89790802  0.41610624  0.87176291    -0.54900
C2045       C  0.91375105  0.39829633  0.90378799     0.09100
C2046       C  0.90638591  0.47799905  0.89910552    -0.54400
C2047       C  0.92104485  0.46292643  0.93312157     0.09600
H2048       H  0.95872741  0.45295895  0.82634966     0.14200
H2049       H  0.95031693  0.41234171  0.95274845    -0.00100
H2050       H  0.88084350  0.40348839  0.85128080     0.14500
H2051       H  0.89611601  0.50644169  0.89857492     0.14300
C2052       C  0.91186495  0.04479647  0.63069289     0.86100
C2053       C  0.94784954  0.04732307  0.63727286    -0.54200
C2054       C  0.96488892  0.06620556  0.60815066     0.09000
C2055       C  0.94288029  0.08157488  0.57341228     0.19900
C2056       C  0.89967925  0.08507407  0.62486057    -0.54900
C2057       C  0.91634537  0.10576600  0.59611922     0.09100
C2058       C  0.90905298  0.02663724  0.58813297    -0.54400
C2059       C  0.92525795  0.04584271  0.55755474     0.09600
H2060       H  0.95865710  0.03213486  0.66278052     0.14200
H2061       H  0.95614451  0.09709232  0.54919669    -0.00100
H2062       H  0.88042000  0.09588662  0.64454211     0.14500
H2063       H  0.89748538  0.99989454  0.58336878     0.14300
N2064       N  0.91418723  0.00094881  0.99883976    -0.03900
C2065       C  0.93120131  0.02929797  0.51583892    -0.01300
C2066       C  0.95807629  0.03682082  0.49181874    -0.24200
C2067       C  0.95825479  0.51148864  0.95976458    -0.24400
C2068       C  0.93161815  0.48929923  0.96532054    -0.01400
H2069       H  0.97638107  0.05734843  0.49755957     0.12400
H2070       H  0.97572268  0.50975760  0.93468659     0.12400
O2071       O  0.51705103  0.47156873  0.73902822    -0.73400
O2072       O  0.61423879  0.47437095  0.74187886    -0.74400
O2073       O  0.56632184  0.45215441  0.79808990    -0.63000
O2074       O  0.56682611  0.49390996  0.68378356    -0.71400
O2075       O  0.56377475  0.05131815  0.71111433    -0.70900
O2076       O  0.56395487  0.00898566  0.82658656    -0.62200
O2077       O  0.61285900  0.03216064  0.76826890    -0.74700
O2078       O  0.51414293  0.02856433  0.76686705    -0.73500
Cu2079     Cu  0.56643550  0.47107346  0.74005485     1.04600
Cu2080     Cu  0.56380146  0.03234780  0.76928449     1.04300
C2081       C  0.99997993  0.49993420  0.75156526     0.92800
C2082       C  0.62876122  0.50351037  0.75437571     0.92000
C2083       C  0.56428417  0.47313055  0.83023302     0.84100
C2084       C  0.56413361  0.02952965  0.67958979     0.90400
O2085       O  0.94963778  0.47095547  0.73294612    -0.73400
O2086       O  0.85089501  0.46754950  0.73155208    -0.74400
O2087       O  0.89982556  0.49057747  0.67323778    -0.63000
O2088       O  0.89995982  0.44828997  0.78868196    -0.71400
O2089       O  0.89702308  0.00571094  0.81603472    -0.70900
O2090       O  0.89752492  0.04743578  0.70167511    -0.62200
O2091       O  0.84959939  0.02533813  0.75795624    -0.74700
O2092       O  0.94678037  0.02797625  0.76073265    -0.73500
Cu2093     Cu  0.89995823  0.46725433  0.73053275     1.04600
Cu2094     Cu  0.89740794  0.02854591  0.75974070     1.04300
C2095       C  0.96380207  0.49958194  0.74822360     0.92800
C2096       C  0.83501021  0.49623386  0.74545242     0.92000
C2097       C  0.89954189  0.02643058  0.66954982     0.84100
C2098       C  0.89965931  0.47005943  0.82021715     0.90400
C2099       C  0.55266208  0.29546500  0.85933488     0.86100
C2100       C  0.51646264  0.30267625  0.85498519    -0.54200
C2101       C  0.50063377  0.31621242  0.88921593     0.09000
C2102       C  0.52426022  0.32484162  0.92413875     0.19900
C2103       C  0.56587665  0.33324998  0.87089696    -0.54900
C2104       C  0.54971817  0.35104434  0.90314755     0.09100
C2105       C  0.55675127  0.27120634  0.89757028    -0.54400
C2106       C  0.54188065  0.28600690  0.93177972     0.09600
H2107       H  0.00483477  0.29702301  0.82587499     0.14200
H2108       H  0.51273114  0.33674388  0.95241557    -0.00100
H2109       H  0.58356376  0.34580184  0.85077369     0.14500
H2110       H  0.56706594  0.24277905  0.89668927     0.14300
C2111       C  0.55238227  0.20478735  0.62917318     0.86100
C2112       C  0.51626440  0.20300609  0.63584166    -0.54200
C2113       C  0.49942442  0.18361275  0.60729168     0.09000
C2114       C  0.52164489  0.16744992  0.57267381     0.19900
C2115       C  0.56400487  0.16430453  0.62407521    -0.54900
C2116       C  0.54773531  0.14349290  0.59557644     0.09100
C2117       C  0.55590970  0.22212155  0.58591126    -0.54400
C2118       C  0.53971831  0.20253889  0.55578560     0.09600
H2119       H  0.00522623  0.21883197  0.66102764     0.14200
H2120       H  0.50847250  0.15160703  0.54895531    -0.00100
H2121       H  0.58259200  0.15347997  0.64425288     0.14500
H2122       H  0.56786541  0.24854182  0.58032401     0.14300
N2123       N  0.55036833  0.24621188  0.49534457    -0.03900
C2124       C  0.53178549  0.25920108  0.96397191    -0.01300
C2125       C  0.50492876  0.23726616  0.95986007    -0.24200
C2126       C  0.50601522  0.21130203  0.49142285    -0.24400
C2127       C  0.53368778  0.21811098  0.51361247    -0.01400
H2128       H  0.48663128  0.23970804  0.93626547     0.12400
H2129       H  0.48756955  0.19116167  0.49833563     0.12400
C2130       C  0.55196694  0.45469470  0.86905604     0.86100
C2131       C  0.56417810  0.41441454  0.87478763    -0.54200
C2132       C  0.54751266  0.39363301  0.90344386     0.09000
C2133       C  0.52096455  0.41776065  0.92622683     0.19900
C2134       C  0.51598434  0.45215609  0.86246006    -0.54900
C2135       C  0.49894594  0.43320736  0.89152855     0.09100
C2136       C  0.55476670  0.47275899  0.91166327    -0.54400
C2137       C  0.53857767  0.45346981  0.94219328     0.09600
H2138       H  0.58345625  0.40366740  0.85509505     0.14200
H2139       H  0.50770651  0.40217748  0.95039622    -0.00100
H2140       H  0.00517718  0.46738781  0.83698418     0.14500
H2141       H  0.56633016  0.49949266  0.91649832     0.14300
C2142       C  0.55297581  0.04551500  0.63932524     0.86100
C2143       C  0.56591694  0.08336140  0.62785314    -0.54200
C2144       C  0.55008908  0.10107219  0.59574270     0.09000
C2145       C  0.52491776  0.07494157  0.57492108     0.19900
C2146       C  0.51674706  0.05243342  0.64410365    -0.54900
C2147       C  0.50108616  0.06612656  0.61014898     0.09100
C2148       C  0.55740912  0.02137941  0.60074798    -0.54400
C2149       C  0.54275985  0.03634151  0.56667302     0.09600
H2150       H  0.58297294  0.09603770  0.64830191     0.14200
H2151       H  0.51351470  0.08688445  0.54684716    -0.00100
H2152       H  0.00508095  0.04670320  0.67341285     0.14500
H2153       H  0.56767672  0.99293776  0.60138320     0.14300
N2154       N  0.54966315  0.99829957  0.00097343    -0.03900
C2155       C  0.53267834  0.46990330  0.98398152    -0.01300
C2156       C  0.50586303  0.46226151  0.00806689    -0.24200
C2157       C  0.50566253  0.98757392  0.54014533    -0.24400
C2158       C  0.53222472  0.00987546  0.53453353    -0.01400
H2159       H  0.48759373  0.44168622  0.00233643     0.12400
H2160       H  0.48821583  0.98924716  0.56525130     0.12400
O2161       O  0.81629507  0.70132425  0.04899261    -0.73400
O2162       O  0.81715828  0.74232720  0.43365477    -0.74400
O2163       O  0.86515666  0.72171357  0.49158445    -0.63000
O2164       O  0.76699574  0.72101556  0.48931764    -0.71400
O2165       O  0.76427577  0.77824249  0.01648313    -0.70900
O2166       O  0.86236158  0.77947521  0.01792978    -0.62200
O2167       O  0.81429738  0.79964621  0.46127143    -0.74700
O2168       O  0.81346801  0.75852039  0.07652081    -0.73500
Cu2169     Cu  0.81667288  0.71950109  0.49022103     1.04600
Cu2170     Cu  0.81378824  0.78090542  0.01904462     1.04300
C2171       C  0.81385488  0.72278413  0.08083221     0.92800
C2172       C  0.81467593  0.77805056  0.42969335     0.92000
C2173       C  0.87897658  0.75130766  0.00406378     0.84100
C2174       C  0.75001400  0.74970881  0.50136413     0.90400
O2175       O  0.69683629  0.77848304  0.00972085    -0.73400
O2176       O  0.59866934  0.77765585  0.00744834    -0.74400
O2177       O  0.64667161  0.75713655  0.06535275    -0.63000
O2178       O  0.64752559  0.79809986  0.45005427    -0.71400
O2179       O  0.65041306  0.74092203  0.42248876    -0.70900
O2180       O  0.64963056  0.69980262  0.03777937    -0.62200
O2181       O  0.60152844  0.71986714  0.48110301    -0.74700
O2182       O  0.69959523  0.72125582  0.48254469    -0.73500
Cu2183     Cu  0.64714809  0.77994190  0.00881033     1.04600
Cu2184     Cu  0.65009864  0.71852340  0.47998307     1.04300
C2185       C  0.71383642  0.74980464  0.99766704     0.92800
C2186       C  0.58490222  0.74801076  0.99497916     0.92000
C2187       C  0.64921231  0.72142331  0.06934130     0.84100
C2188       C  0.65000412  0.77666376  0.41820322     0.90400
C2189       C  0.66287308  0.79425157  0.37909687     0.86100
C2190       C  0.69906170  0.79493526  0.38532578    -0.54200
C2191       C  0.71642794  0.81409779  0.35671682     0.09000
C2192       C  0.69487013  0.83006863  0.32203647     0.19900
C2193       C  0.65220690  0.83516002  0.37390497    -0.54900
C2194       C  0.66948674  0.85499829  0.34516738     0.09100
C2195       C  0.65911734  0.77678588  0.33607693    -0.54400
C2196       C  0.67589118  0.79564267  0.30563739     0.09600
H2197       H  0.70961195  0.77947153  0.41083580     0.14200
H2198       H  0.70852845  0.84499287  0.29784409    -0.00100
H2199       H  0.63389474  0.84712332  0.39428752     0.14500
H2200       H  0.64624978  0.75097435  0.33074402     0.14300
C2201       C  0.65999926  0.70469692  0.10933042     0.86100
C2202       C  0.69618536  0.69726580  0.10475878    -0.54200
C2203       C  0.71146760  0.68322733  0.13877267     0.09000
C2204       C  0.68730800  0.67359896  0.17335140     0.19900
C2205       C  0.64637890  0.66701907  0.12001595    -0.54900
C2206       C  0.66170306  0.64813448  0.15177317     0.09100
C2207       C  0.65561383  0.72822706  0.14814994    -0.54400
C2208       C  0.67015251  0.71263338  0.18193194     0.09600
H2209       H  0.70828464  0.70384158  0.07595348     0.14200
H2210       H  0.69842677  0.66083008  0.20122413    -0.00100
H2211       H  0.62853827  0.65572853  0.09972370     0.14500
H2212       H  0.64583914  0.75690598  0.14781341     0.14300
N2213       N  0.66337900  0.75280359  0.24538349    -0.03900
C2214       C  0.68080181  0.78043030  0.26296593    -0.01300
C2215       C  0.70838747  0.78643879  0.23962610    -0.24200
C2216       C  0.70866115  0.76034612  0.20819019    -0.24400
C2217       C  0.68140583  0.73916036  0.21349111    -0.01400
H2218       H  0.72741827  0.80594232  0.24585570     0.12400
H2219       H  0.72666901  0.75740105  0.18387800     0.12400
C2220       C  0.66381778  0.95658109  0.38290769     0.86100
C2221       C  0.65281122  0.91681859  0.37589182    -0.54200
C2222       C  0.66987628  0.89711589  0.34619058     0.09000
C2223       C  0.69544237  0.92148455  0.32385976     0.19900
C2224       C  0.70000070  0.95322540  0.38903478    -0.54900
C2225       C  0.71740545  0.93539059  0.35859588     0.09100
C2226       C  0.66013032  0.97615247  0.34098693    -0.54400
C2227       C  0.67669484  0.95766367  0.30954134     0.09600
H2228       H  0.63450539  0.90529144  0.39590168     0.14200
H2229       H  0.70884575  0.90677635  0.29876875    -0.00100
H2230       H  0.71021829  0.96613189  0.41595220     0.14500
H2231       H  0.64749392  0.00301435  0.33718647     0.14300
C2232       C  0.65780040  0.54678837  0.11286420     0.86100
C2233       C  0.64584444  0.58650664  0.12105756    -0.54200
C2234       C  0.66156381  0.60523807  0.15205319     0.09000
C2235       C  0.68642130  0.57851824  0.17475665     0.19900
C2236       C  0.69409835  0.54998435  0.10799052    -0.54900
C2237       C  0.71008471  0.56535961  0.14023637     0.09100
C2238       C  0.65254570  0.52594478  0.15321934    -0.54400
C2239       C  0.66782524  0.54169243  0.18610303     0.09600
H2240       H  0.62836095  0.59864699  0.10019672     0.14200
H2241       H  0.69814089  0.59170316  0.20163695    -0.00100
H2242       H  0.70545455  0.54008224  0.07975680     0.14500
H2243       H  0.64203644  0.49817744  0.15445568     0.14300
N2244       N  0.66333979  0.00328641  0.25188848    -0.03900
C2245       C  0.68147065  0.97456346  0.26790511    -0.01300
C2246       C  0.70753149  0.96608957  0.24230982    -0.24200
C2247       C  0.70641277  0.49175759  0.21064001    -0.24400
C2248       C  0.67977636  0.51500654  0.21788802    -0.01400
H2249       H  0.72623290  0.94476269  0.24671120     0.12400
H2250       H  0.72297981  0.49288960  0.18461616     0.12400
O2251       O  0.76615433  0.97077820  0.01461831    -0.73400
O2252       O  0.86566474  0.96989473  0.01498921    -0.74400
O2253       O  0.81540919  0.99010176  0.07349914    -0.63000
O2254       O  0.81776571  0.94873857  0.45834485    -0.71400
O2255       O  0.81671685  0.50586338  0.43040547    -0.70900
O2256       O  0.81355683  0.54721552  0.04561946    -0.62200
O2257       O  0.86303332  0.52767691  0.48877135    -0.74700
O2258       O  0.76560829  0.52771885  0.48665474    -0.73500
Cu2259     Cu  0.81647579  0.96778390  0.01628760     1.04600
Cu2260     Cu  0.81495214  0.52906482  0.48711865     1.04300
C2261       C  0.75015702  0.99945212  0.50032798     0.92800
C2262       C  0.87962899  0.99928292  0.50131560     0.92000
C2263       C  0.81298960  0.52575564  0.07748460     0.84100
C2264       C  0.81689007  0.97003659  0.42651585     0.90400
O2265       O  0.64595953  0.55070318  0.04147487    -0.73400
O2266       O  0.64839346  0.50937601  0.42635787    -0.74400
O2267       O  0.59810769  0.52944374  0.48483902    -0.63000
O2268       O  0.69762824  0.52876241  0.48525664    -0.71400
O2269       O  0.69822424  0.97179023  0.01314453    -0.70900
O2270       O  0.60081837  0.97168015  0.01110214    -0.62200
O2271       O  0.65028676  0.95222741  0.45417556    -0.74700
O2272       O  0.64714531  0.99358683  0.06946296    -0.73500
Cu2273     Cu  0.64729170  0.53166171  0.48356741     1.04600
Cu2274     Cu  0.64889640  0.97037538  0.01271951     1.04300
C2275       C  0.64689348  0.52942930  0.07331790     0.92800
C2276       C  0.65082567  0.97370943  0.42232288     0.92000
C2277       C  0.58418569  0.50003442  0.49851034     0.84100
C2278       C  0.71367618  0.00009963  0.49952426     0.90400
C2279       C  0.80598776  0.95276486  0.38692965     0.86100
C2280       C  0.76969753  0.94950807  0.39180142    -0.54200
C2281       C  0.75372050  0.93426312  0.35947361     0.09000
C2282       C  0.77738425  0.92124359  0.32489524     0.19900
C2283       C  0.81797044  0.91309034  0.37856858    -0.54900
C2284       C  0.80226281  0.89446391  0.34747922     0.09100
C2285       C  0.81121655  0.97376357  0.34666338    -0.54400
C2286       C  0.79595143  0.95811904  0.31371460     0.09600
H2287       H  0.75833788  0.95925771  0.42009716     0.14200
H2288       H  0.76566952  0.90814941  0.29795775    -0.00100
H2289       H  0.83545056  0.90088903  0.39939359     0.14500
H2290       H  0.82171859  0.00153812  0.34553598     0.14300
C2291       C  0.79999132  0.54294938  0.11685736     0.86100
C2292       C  0.76380996  0.54634953  0.11069951    -0.54200
C2293       C  0.74640717  0.56424941  0.14109741     0.09000
C2294       C  0.76838244  0.57822043  0.17579288     0.19900
C2295       C  0.81104687  0.58270172  0.12377998    -0.54900
C2296       C  0.79397604  0.60250888  0.15338145     0.09100
C2297       C  0.80364596  0.52346401  0.15882335    -0.54400
C2298       C  0.78710181  0.54205088  0.19021784     0.09600
H2299       H  0.75359474  0.53343439  0.08378706     0.14200
H2300       H  0.75499053  0.59300098  0.20084476    -0.00100
H2301       H  0.82938315  0.59415207  0.10376105     0.14500
H2302       H  0.81626359  0.49660014  0.16269681     0.14300
N2303       N  0.80047999  0.99651419  0.24795095    -0.03900
C2304       C  0.78403256  0.98487593  0.28198444    -0.01300
C2305       C  0.75744763  0.00819952  0.28926376    -0.24200
C2306       C  0.75634202  0.53384807  0.25755471    -0.24400
C2307       C  0.78235927  0.52526989  0.23192072    -0.01400
H2308       H  0.74089288  0.00710670  0.31530440     0.12400
H2309       H  0.73766579  0.55520311  0.25313837     0.12400
C2310       C  0.80388376  0.79486093  0.38974559     0.86100
C2311       C  0.81749530  0.83257770  0.37920452    -0.54200
C2312       C  0.80215569  0.85156955  0.34754104     0.09000
C2313       C  0.77655775  0.82617105  0.32585808     0.19900
C2314       C  0.76769187  0.80226128  0.39434491    -0.54900
C2315       C  0.75239925  0.81641080  0.36039250     0.09100
C2316       C  0.80827667  0.77146523  0.35083410    -0.54400
C2317       C  0.79373411  0.78717669  0.31711179     0.09600
H2318       H  0.83534842  0.84380349  0.39952337     0.14200
H2319       H  0.76543509  0.83903126  0.29803624    -0.00100
H2320       H  0.75559684  0.79557934  0.42312119     0.14500
H2321       H  0.81804793  0.74278372  0.35106314     0.14300
C2322       C  0.80099342  0.70526964  0.11998078     0.86100
C2323       C  0.81162801  0.66436396  0.12529878    -0.54200
C2324       C  0.79434857  0.64463176  0.15414059     0.09000
C2325       C  0.76897942  0.66964469  0.17717230     0.19900
C2326       C  0.76480610  0.70460113  0.11376408    -0.54900
C2327       C  0.74743381  0.68553148  0.14243945     0.09100
C2328       C  0.80476440  0.72285207  0.16294583    -0.54400
C2329       C  0.78797438  0.70409861  0.19344646     0.09600
H2330       H  0.82992248  0.65232961  0.10493896     0.14200
H2331       H  0.75531121  0.65479677  0.20141311    -0.00100
H2332       H  0.75425906  0.72000726  0.08820993     0.14500
H2333       H  0.81763890  0.74867429  0.16819323     0.14300
N2334       N  0.80048698  0.74703514  0.25362756    -0.03900
C2335       C  0.78301978  0.71944809  0.23604360    -0.01300
C2336       C  0.75538828  0.71354896  0.25932510    -0.24200
C2337       C  0.75513455  0.73965795  0.29073312    -0.24400
C2338       C  0.78244867  0.76074774  0.28548095    -0.05400
H2339       H  0.73633080  0.69408248  0.25309453     0.12400
H2340       H  0.73711678  0.74264422  0.31502610     0.12400
O2341       O  0.61259828  0.77994057  0.23152038    -0.73400
O2342       O  0.51441453  0.77832853  0.23233903    -0.74400
O2343       O  0.56355064  0.80050832  0.28758929    -0.63000
O2344       O  0.56454128  0.75854069  0.17230578    -0.71400
O2345       O  0.56665625  0.70154380  0.20027086    -0.70900
O2346       O  0.56639524  0.74322466  0.31520591    -0.62200
O2347       O  0.51690626  0.72132180  0.26011214    -0.74700
O2348       O  0.61476608  0.72211118  0.25772601    -0.73500
Cu2349     Cu  0.56397423  0.78129935  0.22989539     1.04600
Cu2350     Cu  0.56645075  0.71998896  0.25899109     1.04300
C2351       C  0.62885720  0.75173838  0.24562523     0.92800
C2352       C  0.00004630  0.74979993  0.24774380     0.92000
C2353       C  0.56383166  0.77895188  0.31917483     0.84100
C2354       C  0.56468378  0.72277041  0.16823905     0.90400
O2355       O  0.89727164  0.79804199  0.29884231    -0.73400
O2356       O  0.89755644  0.75641140  0.18385162    -0.74400
O2357       O  0.84915920  0.77761815  0.24130123    -0.63000
O2358       O  0.94701238  0.77821765  0.23903042    -0.71400
O2359       O  0.94944085  0.72119303  0.26676505    -0.70900
O2360       O  0.85122637  0.71979016  0.26751647    -0.62200
O2361       O  0.90026741  0.69913465  0.21150054    -0.74700
O2362       O  0.89929513  0.74102062  0.32675990    -0.73500
Cu2363     Cu  0.89748353  0.77963805  0.24009294     1.04600
Cu2364     Cu  0.89985638  0.71831769  0.26917443     1.04300
C2365       C  0.89920243  0.77678257  0.33085533     0.92800
C2366       C  0.90004494  0.72067438  0.17990605     0.92000
C2367       C  0.83501450  0.74802616  0.25340284     0.84100
C2368       C  0.96384161  0.74971452  0.25138936     0.90400
C2369       C  0.91149841  0.79468674  0.36996539     0.86100
C2370       C  0.89988365  0.83515766  0.37517378    -0.54200
C2371       C  0.91615041  0.85588632  0.40375100     0.09000
C2372       C  0.94224353  0.83187672  0.42656946     0.19900
C2373       C  0.94761518  0.79647252  0.36329881    -0.54900
C2374       C  0.96445471  0.81579833  0.39190151     0.09100
C2375       C  0.90797194  0.77724923  0.41317939    -0.54400
C2376       C  0.92417172  0.79675787  0.44335352     0.09600
H2377       H  0.88130422  0.84603683  0.35501757     0.14200
H2378       H  0.95542022  0.84765720  0.45033422    -0.00100
H2379       H  0.95865485  0.78070268  0.33807053     0.14500
H2380       H  0.89601604  0.75081696  0.41869742     0.14300
C2381       C  0.91121462  0.70410704  0.13978995     0.86100
C2382       C  0.89798967  0.66628501  0.12839662    -0.54200
C2383       C  0.91413985  0.64837037  0.09622926     0.09000
C2384       C  0.93960130  0.67448740  0.07510958     0.19900
C2385       C  0.94741738  0.69691050  0.14415330    -0.54900
C2386       C  0.96324170  0.68324605  0.10997756     0.09100
C2387       C  0.90711665  0.72822700  0.10145769    -0.54400
C2388       C  0.92197577  0.71329023  0.06730412     0.09600
H2389       H  0.88029106  0.65381008  0.14856461     0.14200
H2390       H  0.95112475  0.66248912  0.04687457    -0.00100
H2391       H  0.95904661  0.70266891  0.17323535     0.14500
H2392       H  0.89681825  0.75666405  0.10222947     0.14300
N2393       N  0.91349382  0.75304293  0.00372267    -0.03900
C2394       C  0.93210771  0.73997821  0.03502660    -0.01300
C2395       C  0.95903913  0.76179836  0.03905670    -0.24200
C2396       C  0.95793841  0.78778794  0.50761412    -0.24400
C2397       C  0.93022317  0.78109442  0.48546995    -0.01400
H2398       H  0.97735865  0.75930647  0.06261756     0.12400
H2399       H  0.97642241  0.80787752  0.50069880     0.12400
C2400       C  0.91086578  0.95399968  0.36043180     0.86100
C2401       C  0.94710153  0.94711265  0.35562763    -0.54200
C2402       C  0.96277145  0.93329987  0.38952353     0.09000
C2403       C  0.93893993  0.92436116  0.42470932     0.19900
C2404       C  0.89793475  0.91611188  0.37175639    -0.54900
C2405       C  0.91377478  0.89829781  0.40378195     0.09100
C2406       C  0.90642436  0.97800146  0.39910138    -0.54400
C2407       C  0.92108026  0.96292218  0.43311550     0.09600
H2408       H  0.95875974  0.95295244  0.32634231     0.14200
H2409       H  0.95034586  0.91233279  0.45274006    -0.00100
H2410       H  0.88086666  0.90349870  0.35127555     0.14500
H2411       H  0.89615917  0.00644638  0.39857392     0.14300
C2412       C  0.91183129  0.54481847  0.13069976     0.86100
C2413       C  0.94781715  0.54733316  0.13727534    -0.54200
C2414       C  0.96485894  0.56621306  0.10815432     0.09000
C2415       C  0.94285231  0.58158804  0.07341731     0.19900
C2416       C  0.89965428  0.58510045  0.12486986    -0.54900
C2417       C  0.91632494  0.60578700  0.09612754     0.09100
C2418       C  0.90901253  0.52666132  0.08813875    -0.54400
C2419       C  0.92522148  0.54586101  0.05755895     0.09600
H2420       H  0.95862360  0.53214030  0.16278052     0.14200
H2421       H  0.95611911  0.59710256  0.04920224    -0.00100
H2422       H  0.88039794  0.59591960  0.14455265     0.14500
H2423       H  0.89743854  0.49992251  0.08337576     0.14300
N2424       N  0.91415468  0.50094155  0.49884861    -0.03900
C2425       C  0.93116275  0.52931310  0.01584142    -0.01300
C2426       C  0.95802754  0.53685019  0.99180766    -0.24200
C2427       C  0.95830259  0.01146011  0.45977544    -0.24400
C2428       C  0.93165443  0.98928688  0.46531837    -0.01400
H2429       H  0.97632592  0.55738812  0.99753846     0.12400
H2430       H  0.97577692  0.00972005  0.43470537     0.12400
O2431       O  0.51706978  0.97156290  0.23902748    -0.73400
O2432       O  0.61425539  0.97435287  0.24186139    -0.74400
O2433       O  0.56634551  0.95213406  0.29807857    -0.63000
O2434       O  0.56683746  0.99390617  0.18377873    -0.71400
O2435       O  0.56374382  0.55130344  0.21111939    -0.70900
O2436       O  0.56393504  0.50897228  0.32659016    -0.62200
O2437       O  0.61283143  0.53214134  0.26826254    -0.74700
O2438       O  0.51412080  0.52855585  0.26687883    -0.73500
Cu2439     Cu  0.56645239  0.97106129  0.24004557     1.04600
Cu2440     Cu  0.56377687  0.53233249  0.26928774     1.04300
C2441       C  0.00000413  0.99993245  0.25156437     0.92800
C2442       C  0.62878183  0.00348738  0.25436441     0.92000
C2443       C  0.56431480  0.97310796  0.33022412     0.84100
C2444       C  0.56410140  0.52951826  0.17959253     0.90400
O2445       O  0.94966140  0.97096684  0.23293664    -0.73400
O2446       O  0.85092372  0.96756821  0.23155833    -0.74400
O2447       O  0.89984743  0.99059168  0.17323472    -0.63000
O2448       O  0.89999214  0.94830457  0.28867686    -0.71400
O2449       O  0.89701052  0.50571400  0.31604032    -0.70900
O2450       O  0.89750358  0.54745666  0.20168725    -0.62200
O2451       O  0.84958419  0.52535567  0.25797134    -0.74700
O2452       O  0.94676224  0.52798362  0.26073797    -0.73500
Cu2453     Cu  0.89998444  0.96727073  0.23053022     1.04600
Cu2454     Cu  0.89739182  0.52855828  0.25975092     1.04300
C2455       C  0.96382767  0.99958859  0.24822019     0.92800
C2456       C  0.83503872  0.99625136  0.24545974     0.92000
C2457       C  0.89951128  0.52645347  0.16955946     0.84100
C2458       C  0.89969241  0.97007042  0.32021446     0.90400
C2459       C  0.55265734  0.79543508  0.35933525     0.86100
C2460       C  0.51645823  0.80265111  0.35498583    -0.54200
C2461       C  0.50063235  0.81619730  0.38921493     0.09000
C2462       C  0.52426094  0.82483078  0.42413280     0.19900
C2463       C  0.56587694  0.83322037  0.37088691    -0.54900
C2464       C  0.54972378  0.85102256  0.40313541     0.09100
C2465       C  0.55674318  0.77118312  0.39757614    -0.54400
C2466       C  0.54187351  0.78599519  0.43178112     0.09600
H2467       H  0.00482865  0.79699092  0.32587863     0.14200
H2468       H  0.51273345  0.83673881  0.45240804    -0.00100
H2469       H  0.58356461  0.84576672  0.35075992     0.14500
H2470       H  0.56705188  0.74275293  0.39670181     0.14300
C2471       C  0.55238895  0.70478822  0.12916230     0.86100
C2472       C  0.51627046  0.70301948  0.13583044    -0.54200
C2473       C  0.49942633  0.68362766  0.10728456     0.09000
C2474       C  0.52164279  0.66745762  0.07266616     0.19900
C2475       C  0.56400270  0.66430158  0.12406625    -0.54900
C2476       C  0.54772653  0.64349325  0.09557171     0.09100
C2477       C  0.55592134  0.72211912  0.08589957    -0.54400
C2478       C  0.53972595  0.70254008  0.05577445     0.09600
H2479       H  0.00523536  0.71884878  0.16101618     0.14200
H2480       H  0.50846669  0.65161722  0.04894927    -0.00100
H2481       H  0.58258865  0.65347171  0.14424261     0.14500
H2482       H  0.56788572  0.74853348  0.08031070     0.14300
N2483       N  0.55038926  0.74621324  0.99533550    -0.03900
C2484       C  0.53176904  0.75920263  0.46397847    -0.01300
C2485       C  0.50490271  0.73728243  0.45987677    -0.24200
C2486       C  0.50604226  0.71129432  0.99139222    -0.24400
C2487       C  0.53370741  0.71810820  0.01359527    -0.01400
H2488       H  0.48660230  0.73973106  0.43628665     0.12400
H2489       H  0.48759603  0.69115187  0.99829774     0.12400
C2490       C  0.55199988  0.95467206  0.36904886     0.86100
C2491       C  0.56420364  0.91438792  0.37477824    -0.54200
C2492       C  0.54753396  0.89361123  0.40343529     0.09000
C2493       C  0.52099238  0.91774559  0.42622091     0.19900
C2494       C  0.51601615  0.95214334  0.36245611    -0.54900
C2495       C  0.49897577  0.93319637  0.39152336     0.09100
C2496       C  0.55480501  0.97273460  0.41165716    -0.54400
C2497       C  0.53861236  0.95345062  0.44218843     0.09600
H2498       H  0.58347913  0.90363459  0.35508466     0.14200
H2499       H  0.50773195  0.90216494  0.45038960    -0.00100
H2500       H  0.00520964  0.96737890  0.33698240     0.14500
H2501       H  0.56637399  0.99946498  0.41649128     0.14300
C2502       C  0.55294353  0.54551051  0.13933078     0.86100
C2503       C  0.56588706  0.58335789  0.12786477    -0.54200
C2504       C  0.55006313  0.60107222  0.09575310     0.09000
C2505       C  0.52488881  0.57494823  0.07492948     0.19900
C2506       C  0.51671525  0.55243200  0.14410899    -0.54900
C2507       C  0.50105608  0.56613103  0.11015545     0.09100
C2508       C  0.55737590  0.52138002  0.10075008    -0.54400
C2509       C  0.54272872  0.53634891  0.06667745     0.09600
H2510       H  0.58294519  0.59603009  0.14831394     0.14200
H2511       H  0.51348614  0.58689456  0.04685685    -0.00100
H2512       H  0.00504856  0.54669854  0.17341693     0.14500
H2513       H  0.56764115  0.49293717  0.10138080     0.14300
N2514       N  0.54962983  0.49829462  0.50098042    -0.03900
C2515       C  0.53271453  0.96988676  0.48397862    -0.01300
C2516       C  0.50590979  0.96222897  0.50807743    -0.24200
C2517       C  0.50561744  0.48760653  0.04013412    -0.24400
C2518       C  0.53219207  0.50989034  0.03453503    -0.01400
H2519       H  0.48764769  0.94164255  0.50235656     0.12400
H2520       H  0.48816411  0.48929034  0.06523199     0.12400
O2521       O  0.81626023  0.70135441  0.54900375    -0.73400
O2522       O  0.81716148  0.74231055  0.93364635    -0.74400
O2523       O  0.86517470  0.72169686  0.99156295    -0.63000
O2524       O  0.76701563  0.72097778  0.98931433    -0.71400
O2525       O  0.76425871  0.77828053  0.51648500    -0.70900
O2526       O  0.86234997  0.77949600  0.51794032    -0.62200
O2527       O  0.81429730  0.79962634  0.96127123    -0.74700
O2528       O  0.81344228  0.75854970  0.57653397    -0.73500
Cu2529     Cu  0.81669234  0.71947470  0.99020931     1.04600
Cu2530     Cu  0.81377486  0.78093354  0.51905094     1.04300
C2531       C  0.81381829  0.72281265  0.58084395     0.92800
C2532       C  0.81466907  0.77803425  0.92969118     0.92000
C2533       C  0.87896239  0.75132475  0.50407776     0.84100
C2534       C  0.75003341  0.74967154  0.00135795     0.90400
O2535       O  0.69680955  0.77850924  0.50973780    -0.73400
O2536       O  0.59864028  0.77765475  0.50743827    -0.74400
O2537       O  0.64663148  0.75715208  0.56535575    -0.63000
O2538       O  0.64754006  0.79809426  0.95005759    -0.71400
O2539       O  0.65041967  0.74091895  0.92248515    -0.70900
O2540       O  0.64960277  0.69981828  0.53778288    -0.62200
O2541       O  0.60154722  0.71986976  0.98110750    -0.74700
O2542       O  0.69961277  0.72122891  0.98252784    -0.73500
Cu2543     Cu  0.64711925  0.77995433  0.50881201     1.04600
Cu2544     Cu  0.65011594  0.71851182  0.97997755     1.04300
C2545       C  0.71381504  0.74983561  0.49768143     0.92800
C2546       C  0.58487831  0.74800374  0.49497544     0.92000
C2547       C  0.64917395  0.72143886  0.56934436     0.84100
C2548       C  0.65000573  0.77666167  0.91820329     0.90400
C2549       C  0.66286347  0.79425477  0.87909522     0.86100
C2550       C  0.69905244  0.79492949  0.88531482    -0.54200
C2551       C  0.71641679  0.81409585  0.85671028     0.09000
C2552       C  0.69485673  0.83007255  0.82203282     0.19900
C2553       C  0.65220230  0.83516785  0.87391218    -0.54900
C2554       C  0.66947905  0.85500509  0.84516850     0.09100
C2555       C  0.65909678  0.77679541  0.83607461    -0.54400
C2556       C  0.67586810  0.79565253  0.80563378     0.09600
H2557       H  0.70960600  0.77945855  0.91081780     0.14200
H2558       H  0.70851486  0.84499679  0.79783994    -0.00100
H2559       H  0.63389416  0.84713238  0.89429992     0.14500
H2560       H  0.64622384  0.75098762  0.83074117     0.14300
C2561       C  0.65995803  0.70471279  0.60933300     0.86100
C2562       C  0.69614447  0.69728312  0.60475904    -0.54200
C2563       C  0.71142725  0.68324452  0.63877155     0.09000
C2564       C  0.68727042  0.67361729  0.67335169     0.19900
C2565       C  0.64633911  0.66703374  0.62002097    -0.54900
C2566       C  0.66166835  0.64815119  0.65177667     0.09100
C2567       C  0.65557302  0.72824325  0.64815129    -0.54400
C2568       C  0.67011340  0.71264923  0.68193146     0.09600
H2569       H  0.70824431  0.70385884  0.57595387     0.14200
H2570       H  0.69838959  0.66085069  0.70122516    -0.00100
H2571       H  0.62849912  0.65573979  0.59972983     0.14500
H2572       H  0.64579814  0.75692204  0.64781525     0.14300
N2573       N  0.66334091  0.75282117  0.74537727    -0.03900
C2574       C  0.68076889  0.78044418  0.76295997    -0.01300
C2575       C  0.70835860  0.78644231  0.73962443    -0.24200
C2576       C  0.70862914  0.76034947  0.70819021    -0.24400
C2577       C  0.68136833  0.73917355  0.71348850    -0.01400
H2578       H  0.72739494  0.80593759  0.74585747     0.12400
H2579       H  0.72663888  0.75739757  0.68388125     0.12400
C2580       C  0.66381847  0.95658342  0.88290661     0.86100
C2581       C  0.65279764  0.91682921  0.87587323    -0.54200
C2582       C  0.66986462  0.89712444  0.84617582     0.09000
C2583       C  0.69544090  0.92149003  0.82385563     0.19900
C2584       C  0.69999982  0.95320680  0.88904420    -0.54900
C2585       C  0.71740438  0.93537831  0.85860119     0.09100
C2586       C  0.66014485  0.97616949  0.84099263    -0.54400
C2587       C  0.67670530  0.95768151  0.80954412     0.09600
H2588       H  0.63448477  0.90530484  0.89587445     0.14200
H2589       H  0.70884266  0.90678331  0.79876196    -0.00100
H2590       H  0.71021711  0.96609331  0.91597333     0.14500
H2591       H  0.64751600  0.00303691  0.83719759     0.14300
C2592       C  0.65778953  0.54680069  0.61287431     0.86100
C2593       C  0.64583454  0.58652010  0.62105375    -0.54200
C2594       C  0.66154871  0.60525610  0.65204778     0.09000
C2595       C  0.68640896  0.57854413  0.67475830     0.19900
C2596       C  0.69408834  0.54999134  0.60800215    -0.54900
C2597       C  0.71007418  0.56537631  0.64024312     0.09100
C2598       C  0.65253222  0.52596757  0.65323548    -0.54400
C2599       C  0.66781440  0.54172063  0.68611463     0.09600
H2600       H  0.62835191  0.59865641  0.60018893     0.14200
H2601       H  0.69812799  0.59173593  0.70163486    -0.00100
H2602       H  0.70544521  0.54007041  0.57977713     0.14500
H2603       H  0.64202355  0.49820015  0.65447819     0.14300
N2604       N  0.66334513  0.00330877  0.75189352    -0.03900
C2605       C  0.68147799  0.97458497  0.76790791    -0.01300
C2606       C  0.70753081  0.96610207  0.74230281    -0.24200
C2607       C  0.70640705  0.49178364  0.71063122    -0.24400
C2608       C  0.67977520  0.51503622  0.71789524    -0.01400
H2609       H  0.72622929  0.94477074  0.74669943     0.12400
H2610       H  0.72296716  0.49291668  0.68460041     0.12400
O2611       O  0.76614686  0.97079401  0.51461589    -0.73400
O2612       O  0.86566170  0.96989916  0.51497706    -0.74400
O2613       O  0.81540469  0.99010267  0.57349463    -0.63000
O2614       O  0.81777680  0.94872346  0.95835073    -0.71400
O2615       O  0.81671959  0.50585533  0.93039321    -0.70900
O2616       O  0.81355421  0.54723506  0.54563019    -0.62200
O2617       O  0.86303527  0.52767410  0.98875769    -0.74700
O2618       O  0.76561335  0.52769607  0.98664406    -0.73500
Cu2619     Cu  0.81646878  0.96779308  0.51628091     1.04600
Cu2620     Cu  0.81495490  0.52905149  0.98710691     1.04300
C2621       C  0.75016252  0.99943237  0.00032434     0.92800
C2622       C  0.87962741  0.99927954  0.00132482     0.92000
C2623       C  0.81298560  0.52577576  0.57749553     0.84100
C2624       C  0.81689640  0.97001979  0.92651999     0.90400
O2625       O  0.64594011  0.55071245  0.54148979    -0.73400
O2626       O  0.64839669  0.50935743  0.92634363    -0.74400
O2627       O  0.59811888  0.52944329  0.98483168    -0.63000
O2628       O  0.69763887  0.52873555  0.98523539    -0.71400
O2629       O  0.69822040  0.97181121  0.51315326    -0.70900
O2630       O  0.60082034  0.97168798  0.51109725    -0.62200
O2631       O  0.65028114  0.95222139  0.95417101    -0.74700
O2632       O  0.64713849  0.99360485  0.56946045    -0.73500
Cu2633     Cu  0.64730323  0.53164752  0.98355237     1.04600
Cu2634     Cu  0.64889540  0.97038900  0.51272115     1.04300
C2635       C  0.64688074  0.52943842  0.57333238     0.92800
C2636       C  0.65082615  0.97370826  0.92232255     0.92000
C2637       C  0.58419315  0.50003636  0.99850245     0.84100
C2638       C  0.71368201  0.00007956  0.99952087     0.90400
C2639       C  0.80598958  0.95274809  0.88693489     0.86100
C2640       C  0.76969884  0.94949288  0.89180868    -0.54200
C2641       C  0.75372010  0.93424849  0.85948089     0.09000
C2642       C  0.77738266  0.92123077  0.82490029     0.19900
C2643       C  0.81797015  0.91307331  0.87857138    -0.54900
C2644       C  0.80226101  0.89444938  0.84748136     0.09100
C2645       C  0.81121662  0.97374849  0.84666857    -0.54400
C2646       C  0.79595061  0.95810576  0.81371936     0.09600
H2647       H  0.75834049  0.95924708  0.92010316     0.14200
H2648       H  0.76566659  0.90813806  0.79796296    -0.00100
H2649       H  0.83544942  0.90086948  0.89939594     0.14500
H2650       H  0.82171904  0.00152295  0.84554164     0.14300
C2651       C  0.79998437  0.54296789  0.61686791     0.86100
C2652       C  0.76380266  0.54636950  0.61070719    -0.54200
C2653       C  0.74639741  0.56426057  0.64110962     0.09000
C2654       C  0.76837159  0.57822454  0.67581015     0.19900
C2655       C  0.81103708  0.58272018  0.62379967    -0.54900
C2656       C  0.79396113  0.60252225  0.65340117     0.09100
C2657       C  0.80363908  0.52347428  0.65882827    -0.54400
C2658       C  0.78709414  0.54205193  0.69022703     0.09600
H2659       H  0.75359029  0.53347118  0.58378360     0.14200
H2660       H  0.75497949  0.59299867  0.70086654    -0.00100
H2661       H  0.82936831  0.59417757  0.60377828     0.14500
H2662       H  0.81625862  0.49661068  0.66269487     0.14300
N2663       N  0.80047370  0.99649369  0.74794592    -0.03900
C2664       C  0.78403162  0.98486315  0.78198837    -0.01300
C2665       C  0.75745054  0.00819159  0.78927298    -0.24200
C2666       C  0.75634484  0.53383408  0.75757028    -0.24400
C2667       C  0.78235570  0.52525721  0.73192564    -0.01400
H2668       H  0.74090133  0.00710489  0.81531993     0.12400
H2669       H  0.73767203  0.55519587  0.75316725     0.12400
C2670       C  0.80387051  0.79484910  0.88974828     0.86100
C2671       C  0.81748888  0.83256116  0.87920330    -0.54200
C2672       C  0.80215038  0.85155532  0.84754077     0.09000
C2673       C  0.77654656  0.82616222  0.82586094     0.19900
C2674       C  0.76767907  0.80226061  0.89435062    -0.54900
C2675       C  0.75238754  0.81641081  0.86039519     0.09100
C2676       C  0.80825617  0.77145047  0.85083913    -0.54400
C2677       C  0.79371207  0.78716175  0.81711913     0.09600
H2678       H  0.83534481  0.84378373  0.89952018     0.14200
H2679       H  0.76542573  0.83902281  0.79803807    -0.00100
H2680       H  0.75558390  0.79558288  0.92312823     0.14500
H2681       H  0.81802209  0.74276660  0.85106921     0.14300
C2682       C  0.80095039  0.70529283  0.61998871     0.86100
C2683       C  0.81158578  0.66438558  0.62529947    -0.54200
C2684       C  0.79430933  0.64464728  0.65413951     0.09000
C2685       C  0.76893485  0.66965285  0.67716986     0.19900
C2686       C  0.76476430  0.70462258  0.61376730    -0.54900
C2687       C  0.74739211  0.68554593  0.64243735     0.09100
C2688       C  0.80471615  0.72286622  0.66295944    -0.54400
C2689       C  0.78792569  0.70410335  0.69345368     0.09600
H2690       H  0.82988307  0.65235621  0.60494061     0.14200
H2691       H  0.75526468  0.65479992  0.70140534    -0.00100
H2692       H  0.75421772  0.72003364  0.58821615     0.14500
H2693       H  0.81758975  0.74868742  0.66821570     0.14300
N2694       N  0.80044959  0.74701216  0.75364570    -0.03900
C2695       C  0.78297533  0.71943637  0.73605707    -0.01300
C2696       C  0.75534181  0.71354480  0.75933813    -0.24200
C2697       C  0.75509575  0.73965166  0.79074986    -0.24400
C2698       C  0.78241630  0.76073106  0.78549798    -0.05400
H2699       H  0.73627835  0.69408748  0.75310296     0.12400
H2700       H  0.73707812  0.74264457  0.81504219     0.12400
O2701       O  0.61255692  0.77995260  0.73151018    -0.73400
O2702       O  0.51437014  0.77832862  0.73233502    -0.74400
O2703       O  0.56351524  0.80051078  0.78758238    -0.63000
O2704       O  0.56449168  0.75855091  0.67229736    -0.71400
O2705       O  0.56661062  0.70155341  0.70026120    -0.70900
O2706       O  0.56636169  0.74322629  0.81519649    -0.62200
O2707       O  0.51686799  0.72132061  0.76010437    -0.74700
O2708       O  0.61472840  0.72212231  0.75771218    -0.73500
Cu2709     Cu  0.56393093  0.78130575  0.72988807     1.04600
Cu2710     Cu  0.56641186  0.71999427  0.75898056     1.04300
C2711       C  0.62881809  0.75175295  0.74561735     0.92800
C2712       C  0.00000492  0.74979538  0.74773459     0.92000
C2713       C  0.56380505  0.77895371  0.81916740     0.84100
C2714       C  0.56463260  0.72278076  0.66823087     0.90400
O2715       O  0.89723722  0.79803319  0.79882538    -0.73400
O2716       O  0.89750188  0.75636797  0.68385239    -0.74400
O2717       O  0.84911899  0.77758861  0.74130564    -0.63000
O2718       O  0.94696654  0.77819617  0.73900747    -0.71400
O2719       O  0.94940440  0.72117772  0.76675651    -0.70900
O2720       O  0.85118931  0.71976278  0.76752696    -0.62200
O2721       O  0.90022703  0.69909419  0.71150757    -0.74700
O2722       O  0.89926617  0.74101730  0.82675550    -0.73500
Cu2723     Cu  0.89743915  0.77961036  0.74008324     1.04600
Cu2724     Cu  0.89982065  0.71829500  0.76917654     1.04300
C2725       C  0.89917432  0.77678062  0.83084292     0.92800
C2726       C  0.89999841  0.72063133  0.67991081     0.92000
C2727       C  0.83497632  0.74799834  0.75341334     0.84100
C2728       C  0.96380032  0.74970003  0.75137455     0.90400
C2729       C  0.91147432  0.79469250  0.86994883     0.86100
C2730       C  0.89986645  0.83516679  0.87515139    -0.54200
C2731       C  0.91613381  0.85589340  0.90373115     0.09000
C2732       C  0.94222283  0.83188086  0.92655247     0.19900
C2733       C  0.94759226  0.79647168  0.86328520    -0.54900
C2734       C  0.96443399  0.81579454  0.89189100     0.09100
C2735       C  0.90794472  0.77725938  0.91316471    -0.54400
C2736       C  0.92414956  0.79676505  0.94333681     0.09600
H2737       H  0.88128992  0.84604809  0.85499233     0.14200
H2738       H  0.95540022  0.84766143  0.95031652    -0.00100
H2739       H  0.95862941  0.78069702  0.83805923     0.14500
H2740       H  0.89599176  0.75082529  0.91868228     0.14300
C2741       C  0.91116939  0.70406915  0.63979316     0.86100
C2742       C  0.89793903  0.66625593  0.62837940    -0.54200
C2743       C  0.91409363  0.64834880  0.59621020     0.09000
C2744       C  0.93955859  0.67447191  0.57510342     0.19900
C2745       C  0.94737205  0.69686323  0.64415903    -0.54900
C2746       C  0.96319776  0.68321519  0.60997624     0.09100
C2747       C  0.90707795  0.72820489  0.60147171    -0.54400
C2748       C  0.92193980  0.71328143  0.56731444     0.09600
H2749       H  0.88023815  0.65377690  0.64854075     0.14200
H2750       H  0.95108168  0.66248315  0.54686327    -0.00100
H2751       H  0.95900236  0.70260943  0.67324362     0.14500
H2752       H  0.89678311  0.75664352  0.60225513     0.14300
N2753       N  0.91348086  0.75305167  0.50374325    -0.03900
C2754       C  0.93208252  0.73998444  0.53505691    -0.01300
C2755       C  0.95901253  0.76180472  0.53910769    -0.24200
C2756       C  0.95795124  0.78778054  0.00756383    -0.24400
C2757       C  0.93022667  0.78108721  0.98543967    -0.01400
H2758       H  0.97732432  0.75930827  0.56267791     0.12400
H2759       H  0.97642950  0.80787427  0.00064086     0.12400
C2760       C  0.91084999  0.95401018  0.86042906     0.86100
C2761       C  0.94708629  0.94712669  0.85562726    -0.54200
C2762       C  0.96275514  0.93331241  0.88952260     0.09000
C2763       C  0.93892223  0.92436863  0.92470514     0.19900
C2764       C  0.89791938  0.91612217  0.87174879    -0.54900
C2765       C  0.91375818  0.89830545  0.90377191     0.09100
C2766       C  0.90640634  0.97801044  0.89910003    -0.54400
C2767       C  0.92106350  0.96293049  0.93311390     0.09600
H2768       H  0.95874620  0.95297091  0.82634429     0.14200
H2769       H  0.95032687  0.91233784  0.95273549    -0.00100
H2770       H  0.88085332  0.90351017  0.85126448     0.14500
H2771       H  0.89614187  0.00645570  0.89857262     0.14300
C2772       C  0.91182408  0.54480118  0.63070476     0.86100
C2773       C  0.94780708  0.54734056  0.63728900    -0.54200
C2774       C  0.96484511  0.56621873  0.60816322     0.09000
C2775       C  0.94283594  0.58157724  0.57341981     0.19900
C2776       C  0.89963009  0.58507471  0.62486315    -0.54900
C2777       C  0.91629536  0.60576581  0.59611882     0.09100
C2778       C  0.90901895  0.52663355  0.58814767    -0.54400
C2779       C  0.92522107  0.54583901  0.55756699     0.09600
H2780       H  0.95861564  0.53216205  0.66280260     0.14200
H2781       H  0.95609869  0.59709403  0.54920274    -0.00100
H2782       H  0.88036858  0.59588613  0.64454220     0.14500
H2783       H  0.89745508  0.49988821  0.58338654     0.14300
N2784       N  0.91415999  0.50095248  0.99884430    -0.03900
C2785       C  0.93116123  0.52929657  0.51584871    -0.01300
C2786       C  0.95802358  0.53683816  0.49181264    -0.24200
C2787       C  0.95828441  0.01147960  0.95976418    -0.24400
C2788       C  0.93164329  0.98929616  0.96531518    -0.01400
H2789       H  0.97632220  0.55737524  0.49754481     0.12400
H2790       H  0.97575253  0.00974835  0.93468647     0.12400
O2791       O  0.51707425  0.97156691  0.73902888    -0.73400
O2792       O  0.61426205  0.97436808  0.74187846    -0.74400
O2793       O  0.56634471  0.95214837  0.79808863    -0.63000
O2794       O  0.56685137  0.99390413  0.68378751    -0.71400
O2795       O  0.56374237  0.55132230  0.71111327    -0.70900
O2796       O  0.56393448  0.50899239  0.82658663    -0.62200
O2797       O  0.61283229  0.53216552  0.76826422    -0.74700
O2798       O  0.51411746  0.52856375  0.76687204    -0.73500
Cu2799     Cu  0.56645882  0.97106987  0.74005589     1.04600
Cu2800     Cu  0.56377553  0.53235099  0.76928380     1.04300
C2801       C  0.00000426  0.99993480  0.75156218     0.92800
C2802       C  0.62878642  0.00350590  0.75437624     0.92000
C2803       C  0.56430530  0.97312336  0.83023206     0.84100
C2804       C  0.56410065  0.52953556  0.67958748     0.90400
O2805       O  0.94966282  0.97095863  0.73293994    -0.73400
O2806       O  0.85092085  0.96755346  0.73154473    -0.74400
O2807       O  0.89985800  0.99057491  0.67322665    -0.63000
O2808       O  0.89998372  0.94830520  0.78867526    -0.71400
O2809       O  0.89700535  0.50569525  0.81604259    -0.70900
O2810       O  0.89749608  0.54743684  0.70169037    -0.62200
O2811       O  0.84957911  0.52533242  0.75796860    -0.74700
O2812       O  0.94675652  0.52797264  0.76074007    -0.73500
Cu2813     Cu  0.89998468  0.96725999  0.73052508     1.04600
Cu2814     Cu  0.89738555  0.52853894  0.75975228     1.04300
C2815       C  0.96382646  0.99958481  0.74821807     0.92800
C2816       C  0.83503310  0.99623452  0.74544794     0.92000
C2817       C  0.89950689  0.52643353  0.66956327     0.84100
C2818       C  0.89967945  0.97007550  0.82020964     0.90400
C2819       C  0.55263902  0.79543662  0.85933037     0.86100
C2820       C  0.51643812  0.80263196  0.85499102    -0.54200
C2821       C  0.50061315  0.81618118  0.88921693     0.09000
C2822       C  0.52424527  0.82483187  0.92412952     0.19900
C2823       C  0.56584634  0.83323194  0.87086650    -0.54900
C2824       C  0.54969639  0.85103170  0.90311894     0.09100
C2825       C  0.55674394  0.77119497  0.89757608    -0.54400
C2826       C  0.54187693  0.78600514  0.93178463     0.09600
H2827       H  0.00480768  0.79696464  0.82588653     0.14200
H2828       H  0.51271832  0.83674344  0.95240290    -0.00100
H2829       H  0.58352799  0.84578119  0.85073270     0.14500
H2830       H  0.56706356  0.74276988  0.89670328     0.14300
C2831       C  0.55233816  0.70479686  0.62915604     0.86100
C2832       C  0.51621961  0.70301927  0.63582159    -0.54200
C2833       C  0.49938172  0.68361848  0.60727668     0.09000
C2834       C  0.52160317  0.66745650  0.57265777     0.19900
C2835       C  0.56396004  0.66431296  0.62406150    -0.54900
C2836       C  0.54769127  0.64349971  0.59556445     0.09100
C2837       C  0.55587075  0.72212757  0.58589467    -0.54400
C2838       C  0.53968204  0.70254352  0.55576866     0.09600
H2839       H  0.00517890  0.71884665  0.66100516     0.14200
H2840       H  0.50843139  0.65161386  0.54893816    -0.00100
H2841       H  0.58254693  0.65348884  0.64423971     0.14500
H2842       H  0.56783263  0.74854364  0.58030577     0.14300
N2843       N  0.55036515  0.74620219  0.49532543    -0.03900
C2844       C  0.53178774  0.75920595  0.96398720    -0.01300
C2845       C  0.50493383  0.73726606  0.95988132    -0.24200
C2846       C  0.50600096  0.71131153  0.49138942    -0.24400
C2847       C  0.53367226  0.71810747  0.51358751    -0.01400
H2848       H  0.48663405  0.73970320  0.93628915     0.12400
H2849       H  0.48754529  0.69118226  0.49830071     0.12400
C2850       C  0.55198512  0.95468625  0.86905297     0.86100
C2851       C  0.56418503  0.91439963  0.87477829    -0.54200
C2852       C  0.54751267  0.89362122  0.90343107     0.09000
C2853       C  0.52097502  0.91775751  0.92622079     0.19900
C2854       C  0.51600075  0.95216247  0.86245973    -0.54900
C2855       C  0.49895924  0.93321348  0.89152516     0.09100
C2856       C  0.55479296  0.97274437  0.91166180    -0.54400
C2857       C  0.53860013  0.95345916  0.94219097     0.09600
H2858       H  0.58346045  0.90364602  0.85508494     0.14200
H2859       H  0.50771385  0.90217628  0.95038860    -0.00100
H2860       H  0.00519576  0.96739986  0.83698636     0.14500
H2861       H  0.56636485  0.99947260  0.91649873     0.14300
C2862       C  0.55293588  0.54552254  0.63932487     0.86100
C2863       C  0.56587484  0.58336993  0.62784860    -0.54200
C2864       C  0.55004319  0.60107923  0.59573935     0.09000
C2865       C  0.52487010  0.57494844  0.57492449     0.19900
C2866       C  0.51670720  0.55244093  0.64410941    -0.54900
C2867       C  0.50104263  0.56613540  0.61015724     0.09100
C2868       C  0.55736499  0.52138722  0.60074727    -0.54400
C2869       C  0.54271282  0.53634952  0.56667491     0.09600
H2870       H  0.58293468  0.59604674  0.64829182     0.14200
H2871       H  0.51346359  0.58688996  0.54685219    -0.00100
H2872       H  0.00504502  0.54670962  0.67342067     0.14500
H2873       H  0.56763410  0.49294619  0.60138014     0.14300
N2874       N  0.54963702  0.49830400  0.00097732    -0.03900
C2875       C  0.53270669  0.96989317  0.98398172    -0.01300
C2876       C  0.50589355  0.96224909  0.00807022    -0.24200
C2877       C  0.50560836  0.48759860  0.54013325    -0.24400
C2878       C  0.53218075  0.50988556  0.53453350    -0.01400
H2879       H  0.48762539  0.94167151  0.00234266     0.12400
H2880       H  0.48815300  0.48928416  0.56522877     0.12400
loop_ 
_geom_bond_atom_site_label_1 
_geom_bond_atom_site_label_2 
_geom_bond_distance 
_geom_bond_site_symmetry_2 
_ccdc_geom_bond_type 
O1           C11   1.283       .  A
O1         Cu369   2.008   1_554  S
O2           C12   1.276       .  A
O2           Cu9   2.001       .  S
O3          C373   1.275       .  A
O3           Cu9   2.011       .  S
O4           C14   1.283       .  A
O4           Cu9   2.056       .  S
O5          C374   1.284       .  A
O5          Cu10   2.057       .  S
O6           C13   1.279       .  A
O6          Cu10   2.010       .  S
O7           C12   1.277       .  A
O7         Cu370   1.984       .  S
O8           C11   1.276       .  A
O8          Cu10   2.022       .  S
Cu9         O361   2.008       .  S
Cu9        Cu370   2.371       .  S
Cu10        O367   1.984   1_554  S
Cu10       Cu369   2.371   1_554  S
C11         C162   1.509       .  S
C12         C150   1.491       .  S
C13         O363   1.275   1_554  A
C13         N233   1.432       .  S
C14         O365   1.284       .  A
C14         C385   1.504       .  S
O15          C25   1.283   1_554  A
O15         Cu23   2.057       .  S
O16          C26   1.275   1_554  A
O16         Cu23   2.011       .  S
O17          C27   1.276       .  A
O17         Cu23   2.000       .  S
O18          C28   1.283       .  A
O18        Cu383   2.007       .  S
O19          C28   1.276       .  A
O19         Cu24   2.023       .  S
O20          C27   1.277       .  A
O20        Cu384   1.984   1_554  S
O21         C386   1.279       .  A
O21         Cu24   2.010       .  S
O22         C385   1.284       .  A
O22         Cu24   2.056       .  S
Cu23        O378   2.007   1_554  S
Cu23       Cu384   2.371   1_554  S
Cu24        O380   1.984       .  S
Cu24       Cu383   2.371       .  S
C25         O382   1.284       .  A
C25         C374   1.504   1_556  S
C26         O381   1.279       .  A
C26         N323   1.432       .  S
C27          C41   1.491       .  S
C28          C29   1.509       .  S
C29          C30   1.514       .  S
C29          C35   1.534       .  S
C29          C33   1.518       .  S
C30          H37   1.081       .  S
C30          C31   1.359       .  D
C31          C32   1.540       .  S
C31         C155   1.499       .  S
C32          C36   1.563       .  S
C32          C34   1.546       .  S
C32          H38   1.104       .  S
C33          H39   1.080       .  S
C33          C34   1.372       .  D
C34          C62   1.496       .  S
C35          H40   1.085       .  S
C35          C36   1.381       .  D
C36          C54   1.492       .  S
C41          C42   1.521       .  S
C41          C47   1.515       .  S
C41          C45   1.502       .  S
C42          H49   1.082       .  S
C42          C43   1.363       .  D
C43          C44   1.537       .  S
C43         C167   1.499       .  S
C44          C48   1.566       .  S
C44          C46   1.576       .  S
C44          H50   1.108       .  S
C45          H51   1.077       .  S
C45          C46   1.378       .  D
C46          C74   1.523       .  S
C47          H52   1.087       .  S
C47          C48   1.364       .  D
C48          C57   1.474       .  S
N53         C191   1.431       .  S
N53          C57   1.351       .  A
N53          C54   1.358       .  A
C54          C55   1.384       .  A
C55          C56   1.375       .  A
C55          H58   1.081       .  S
C56          C57   1.379       .  A
C56          H59   1.082       .  S
C60         C116   1.502       .  S
C60          C61   1.511       .  S
C60          C66   1.531       .  S
C60          C64   1.515       .  S
C61          H68   1.080       .  S
C61          C62   1.370       .  D
C62          C63   1.555       .  S
C63          C67   1.558       .  S
C63          C65   1.540       .  S
C63          H69   1.103       .  S
C64          H70   1.078       .  S
C64          C65   1.362       .  D
C65         C121   1.504       .  S
C66          H71   1.085       .  S
C66          C67   1.379       .  D
C67          C85   1.488       .  S
C72         C115   1.497       .  S
C72          C73   1.506       .  S
C72          C78   1.517       .  S
C72          C76   1.516       .  S
C73          H80   1.077       .  S
C73          C74   1.379       .  D
C74          C75   1.571       .  S
C75          C79   1.574       .  S
C75          C77   1.544       .  S
C75          H81   1.108       .  S
C76          H82   1.078       .  S
C76          C77   1.361       .  D
C77         C133   1.504       .  S
C78          H83   1.087   1_545  S
C78          C79   1.368       .  D
C79          C88   1.479       .  S
N84         C282   1.432       .  S
N84          C85   1.358       .  A
N84         C808   1.359       .  A
C85          C86   1.381       .  A
C86         C807   1.371       .  A
C86          H89   1.081       .  S
C87          C88   1.380   1_565  A
C87         C806   1.371       .  A
C87          H90   1.082       .  S
C88         N804   1.358       .  A
O91         C461   1.289       .  A
O91         Cu99   2.085       .  S
O92         C462   1.281       .  A
O92         Cu99   2.040       .  S
O93         C823   1.274       .  A
O93         Cu99   2.012       .  S
O94         C104   1.278       .  A
O94        Cu459   1.992       .  S
O95         C824   1.277   1_545  A
O95        Cu100   2.011       .  S
O96         C103   1.282       .  A
O96        Cu460   1.999   1_554  S
O97         C822   1.275   1_545  A
O97        Cu100   1.991       .  S
O98         C821   1.279   1_545  A
O98        Cu100   2.045       .  S
Cu99        O454   1.992   1_554  S
Cu99      Cu1180   2.370   1_554  S
Cu100       O456   1.999       .  S
Cu100     Cu1179   2.370   1_545  S
C101        O451   1.289       .  A
C101        O818   1.279       .  A
C101        C118   1.510       .  S
C102        O452   1.281       .  A
C102        O817   1.275       .  A
C102        N984   1.435       .  S
C103        O813   1.274   1_545  A
C103        C131   1.502       .  S
C104        O815   1.277       .  A
C104        C119   1.497       .  S
O105        C115   1.278       .  A
O105       Cu473   1.991   1_554  S
O106        C836   1.274   1_545  A
O106       Cu113   2.012       .  S
O107        C117   1.281       .  A
O107       Cu113   2.039       .  S
O108        C838   1.289       .  A
O108       Cu113   2.085       .  S
O109        C478   1.279   1_554  A
O109       Cu114   2.044       .  S
O110       C1197   1.275   1_554  A
O110       Cu114   1.991       .  S
O111        C116   1.282       .  A
O111       Cu474   2.000       .  S
O112        C835   1.278       .  A
O112       Cu114   2.012       .  S
Cu113       O465   1.992       .  S
Cu113     Cu1194   2.370   1_545  S
Cu114       O471   2.000   1_554  S
Cu114     Cu1193   2.370   1_554  S
C115        O832   1.278   1_545  A
C116        O826   1.274       .  A
C117       O1190   1.275   1_545  A
C117        N354   1.435   1_545  S
C118        O828   1.289       .  A
C118        O469   1.279       .  A
C119        C120   1.516       .  S
C119        C125   1.517       .  S
C119        C123   1.506       .  S
C120        H127   1.078       .  S
C120        C121   1.361       .  D
C121        C122   1.544       .  S
C122        C126   1.573       .  S
C122        C124   1.571       .  S
C122        H128   1.108       .  S
C123        H129   1.077       .  S
C123        C124   1.379       .  D
C124        C152   1.523       .  S
C125        H130   1.087       .  S
C125        C126   1.368       .  D
C126        C144   1.479       .  S
C131        C132   1.515       .  S
C131        C137   1.531       .  S
C131        C135   1.510       .  S
C132        H139   1.078       .  S
C132        C133   1.362       .  D
C133        C134   1.540       .  S
C134        C138   1.558       .  S
C134        C136   1.555       .  S
C134        H140   1.103       .  S
C135        H141   1.080       .  S
C135        C136   1.369       .  D
C136        C164   1.496       .  S
C137        H142   1.085   1_545  S
C137        C138   1.379       .  D
C138        C147   1.488       .  S
N143        C296   1.432       .  S
N143        C144   1.358       .  A
N143        C867   1.358       .  A
C144        C145   1.380       .  A
C145        C866   1.371       .  A
C145        H148   1.082       .  S
C146        C147   1.382       .  A
C146        C865   1.371       .  A
C146        H149   1.081       .  S
C147        N863   1.358   1_545  A
C150        C151   1.502       .  S
C150        C156   1.515       .  S
C150        C154   1.521       .  S
C151        H158   1.077       .  S
C151        C152   1.378       .  D
C152        C153   1.576       .  S
C153        C157   1.566       .  S
C153        C155   1.537       .  S
C153        H159   1.108       .  S
C154        H160   1.082       .  S
C154        C155   1.363       .  D
C156        H161   1.087       .  S
C156        C157   1.364       .  D
C157        C178   1.474       .  S
C162        C163   1.518       .  S
C162        C168   1.534       .  S
C162        C166   1.514       .  S
C163        H170   1.080       .  S
C163        C164   1.372       .  D
C164        C165   1.546       .  S
C165        C169   1.563       .  S
C165        C167   1.540       .  S
C165        H171   1.104       .  S
C166        H172   1.081       .  S
C166        C167   1.359       .  D
C168        H173   1.085       .  S
C168        C169   1.381       .  D
C169        C175   1.492       .  S
N174        C207   1.431       .  S
N174        C178   1.351       .  A
N174        C175   1.358       .  A
C175        C176   1.384       .  A
C176        C177   1.375       .  A
C176        H179   1.081       .  S
C177        C178   1.379       .  A
C177        H180   1.082       .  S
O181        C191   1.280       .  A
O181       Cu189   2.014       .  S
O182       C1632   1.284       .  A
O182       Cu189   2.058       .  S
O183        C193   1.276       .  A
O183       Cu189   1.986       .  S
O184        C194   1.276       .  A
O184       Cu189   2.030       .  S
O185        C194   1.283       .  A
O185       Cu190   2.009       .  S
O186        C193   1.276       .  A
O186       Cu190   1.996       .  S
O187       C1632   1.281       .  A
O187       Cu190   2.051       .  S
O188        C191   1.274       .  A
O188       Cu190   2.003       .  S
Cu189      Cu190   2.371       .  S
C192       O1622   1.284       .  A
C192       O1627   1.281       .  A
C192        C208   1.502       .  S
C193        C299   1.490       .  S
C194        C311   1.513       .  S
O195        C205   1.283       .  A
O195       Cu203   2.009       .  S
O196        C206   1.277       .  A
O196       Cu203   1.997       .  S
O197        C207   1.274       .  A
O197       Cu203   2.003       .  S
O198        C208   1.281       .  A
O198       Cu203   2.050       .  S
O199        C208   1.284       .  A
O199       Cu204   2.058       .  S
O200        C207   1.280       .  A
O200       Cu204   2.014       .  S
O201        C206   1.276       .  A
O201       Cu204   1.986       .  S
O202        C205   1.276       .  A
O202       Cu204   2.029       .  S
Cu203      Cu204   2.372       .  S
C205        C209   1.513       .  S
C206        C221   1.490       .  S
C209        C210   1.513       .  S
C209        C215   1.536       .  S
C209        C213   1.511       .  S
C210        H217   1.078       .  S
C210        C211   1.372       .  D
C211        C212   1.553       .  S
C211        C245   1.506       .  S
C212        C216   1.563       .  S
C212        C214   1.544       .  S
C212        H218   1.106       .  S
C213        H219   1.081       .  S
C213        C214   1.359       .  D
C214       C1741   1.500       .  S
C215        H220   1.085       .  S
C215        C216   1.384       .  D
C216        C237   1.493       .  S
C221        C222   1.508       .  S
C221        C227   1.515       .  S
C221        C225   1.523       .  S
C222        H229   1.079       .  S
C222        C223   1.379       .  D
C223        C224   1.571       .  S
C223        C257   1.512       .  S
C224        C228   1.565       .  S
C224        C226   1.536       .  S
C224        H230   1.107       .  S
C225        H231   1.082       .  S
C225        C226   1.363       .  D
C226       C1753   1.500       .  S
C227        H232   1.087       .  S
C227        C228   1.361       .  D
C228        C234   1.474       .  S
N233        C234   1.354       .  A
N233        C597   1.358   1_554  A
C234        C235   1.379       .  A
C235        C596   1.375       .  A
C235        H238   1.082       .  S
C236        C237   1.383       .  A
C236        C595   1.375       .  A
C236        H239   1.080       .  S
C237        N593   1.358       .  A
C240        C298   1.494       .  S
C240        C241   1.521       .  S
C240        C246   1.521       .  S
C240        C244   1.503       .  S
C241        H248   1.081       .  S
C241        C242   1.365       .  D
C242        C243   1.537       .  S
C242       C1775   1.501       .  S
C243        C247   1.563       .  S
C243        C245   1.567       .  S
C243        H249   1.107       .  S
C244        H250   1.078       .  S
C244        C245   1.377       .  D
C246        H251   1.087       .  S
C246        C247   1.365       .  D
C247        C268   1.476       .  S
C252        C297   1.506       .  S
C252        C253   1.511       .  S
C252        C258   1.527       .  S
C252        C256   1.517       .  S
C253        H260   1.081       .  S
C253        C254   1.358       .  D
C254        C255   1.545       .  S
C254       C1787   1.500       .  S
C255        C259   1.566       .  S
C255        C257   1.557       .  S
C255        H261   1.106       .  S
C256        H262   1.079       .  S
C256        C257   1.375       .  D
C258        H263   1.084   1_545  S
C258        C259   1.379       .  D
C259        C265   1.488       .  S
N264        C822   1.435   1_545  S
N264        C988   1.357   1_545  A
N264        C625   1.360       .  A
C265        N624   1.360   1_554  A
C265        C266   1.382   1_554  A
C266       C1347   1.372       .  A
C266        H269   1.080       .  S
C267        C268   1.380       .  A
C267       C1346   1.372       .  A
C267        H270   1.082       .  S
C268        N984   1.357       .  A
O271       C1721   1.281   1_455  A
O271       Cu279   2.045       .  S
O272        C282   1.276       .  A
O272       Cu279   1.987       .  S
O273        C283   1.280       .  A
O273       Cu279   1.994       .  S
O274       C1004   1.274       .  A
O274       Cu279   1.993       .  S
O275        C284   1.279       .  A
O275       Cu280   1.999       .  S
O276       C1003   1.278   1_545  A
O276       Cu280   2.031       .  S
O277       C1002   1.279       .  A
O277       Cu280   2.031       .  S
O278       C2441   1.285   1_545  A
O278       Cu280   2.065       .  S
Cu279     Cu1000   2.371       .  S
Cu280      Cu999   2.371   1_545  S
C281       O1711   1.281       .  A
C281       O2438   1.285       .  A
C281        C295   1.503       .  S
C282        O997   1.279       .  A
C283        O996   1.278       .  A
C283        C330   1.506       .  S
C284        O994   1.274   1_545  A
C284        C342   1.494       .  S
O285        C295   1.286       .  A
O285       Cu293   2.066       .  S
O286        C296   1.279       .  A
O286       Cu293   2.031       .  S
O287       C1017   1.278       .  A
O287       Cu293   2.030       .  S
O288        C298   1.279       .  A
O288       Cu293   1.998       .  S
O289       C1018   1.274   1_545  A
O289       Cu294   1.993       .  S
O290        C297   1.280       .  A
O290       Cu294   1.994       .  S
O291       C1016   1.276   1_545  A
O291       Cu294   1.986       .  S
O292       C1015   1.280   1_545  A
O292       Cu294   2.044       .  S
Cu293     Cu1014   2.371       .  S
Cu294     Cu1013   2.371   1_545  S
C295       O1012   1.280       .  A
C296       O1011   1.276       .  A
C297       O1007   1.278   1_545  A
C298       O1009   1.274       .  A
C299        C300   1.522       .  S
C299        C305   1.516       .  S
C299        C303   1.508       .  S
C300       H1747   1.082       .  S
C300        C301   1.363       .  D
C301        C302   1.536       .  S
C301       C1654   1.500   1_455  S
C302        C306   1.566       .  S
C302        C304   1.571       .  S
C302        H308   1.107       .  S
C303        H309   1.079       .  S
C303        C304   1.379       .  D
C304        C332   1.512       .  S
C305        H310   1.087       .  S
C305        C306   1.361       .  D
C306        C324   1.475       .  S
H307       C1740   1.082       .  S
C311        C312   1.511       .  S
C311        C317   1.536       .  S
C311        C315   1.513       .  S
C312       H1759   1.081       .  S
C312        C313   1.359   1_455  D
C313        C314   1.545   1_655  S
C313       C1666   1.500       .  S
C314        C318   1.563       .  S
C314        C316   1.553       .  S
C314        H320   1.106       .  S
C315        H321   1.078       .  S
C315        C316   1.372       .  D
C316        C344   1.507       .  S
C317        H322   1.085       .  S
C317        C318   1.384       .  D
C318        C327   1.493       .  S
H319       C1752   1.081       .  S
N323        C327   1.358   1_556  A
N323        C684   1.354       .  A
C324        N683   1.354       .  A
C324        C325   1.379       .  A
C325        C686   1.375       .  A
C325        H328   1.082   1_455  S
C326        C327   1.383   1_556  A
C326        C685   1.375       .  A
C326        H329   1.080   1_455  S
C330        C331   1.518       .  S
C330        C336   1.526       .  S
C330        C334   1.512       .  S
C331        H338   1.079       .  S
C331        C332   1.375       .  D
C332        C333   1.558       .  S
C333        C337   1.566       .  S
C333        C335   1.545   1_455  S
C333        H339   1.106       .  S
C334       H1780   1.080       .  S
C334        C335   1.358   1_455  D
C335       C1682   1.501       .  S
C336        H341   1.084       .  S
C336        C337   1.379       .  D
C337        C355   1.488       .  S
H340       C1774   1.080       .  S
C342        C343   1.503       .  S
C342        C348   1.521       .  S
C342        C346   1.521       .  S
C343        H350   1.078       .  S
C343        C344   1.377       .  D
C344        C345   1.567       .  S
C345        C349   1.563       .  S
C345        C347   1.537       .  S
C345        H351   1.107       .  S
C346       H1792   1.081       .  S
C346        C347   1.365       .  D
C347       C1694   1.500   1_455  S
C348        H353   1.087   1_545  S
C348        C349   1.365       .  D
C349        C358   1.476       .  S
H352       C1786   1.081       .  S
N354        C718   1.357   1_565  A
N354       C1075   1.360       .  A
C355       N1074   1.360       .  A
C355        C356   1.382       .  A
C356       C1437   1.373       .  A
C356        H359   1.080   1_455  S
C357        C358   1.380   1_565  A
C357       C1436   1.373       .  A
C357        H360   1.082   1_455  S
C358        N714   1.357   1_545  A
O361        C371   1.283       .  A
O362        C372   1.276       .  A
O362       Cu369   2.001       .  S
O363       Cu369   2.011       .  S
O364        C374   1.283   1_556  A
O364       Cu369   2.057       .  S
O365       Cu370   2.057       .  S
O366        C373   1.279       .  A
O366       Cu370   2.010       .  S
O367        C372   1.277       .  A
O368        C371   1.276       .  A
O368       Cu370   2.022       .  S
C371        C522   1.509       .  S
C372        C510   1.491       .  S
C373        N593   1.432       .  S
O375        C385   1.283       .  A
O375       Cu383   2.057       .  S
O376        C386   1.275       .  A
O376       Cu383   2.011       .  S
O377        C387   1.276       .  A
O377       Cu383   2.000       .  S
O378        C388   1.283       .  A
O379        C388   1.276       .  A
O379       Cu384   2.023       .  S
O380        C387   1.277       .  A
O381       Cu384   2.010       .  S
O382       Cu384   2.056       .  S
C386        N683   1.432       .  S
C387        C401   1.491       .  S
C388        C389   1.509       .  S
C389        C390   1.514       .  S
C389        C395   1.534       .  S
C389        C393   1.518       .  S
C390        H397   1.081       .  S
C390        C391   1.359       .  D
C391        C392   1.540       .  S
C391        C515   1.499       .  S
C392        C396   1.563       .  S
C392        C394   1.546       .  S
C392        H398   1.104       .  S
C393        H399   1.080       .  S
C393        C394   1.372       .  D
C394        C422   1.496       .  S
C395        H400   1.085       .  S
C395        C396   1.381       .  D
C396        C414   1.492       .  S
C401        C402   1.521       .  S
C401        C407   1.515       .  S
C401        C405   1.502       .  S
C402        H409   1.082       .  S
C402        C403   1.363       .  D
C403        C404   1.537       .  S
C403        C527   1.499       .  S
C404        C408   1.566       .  S
C404        C406   1.576       .  S
C404        H410   1.108       .  S
C405        H411   1.077       .  S
C405        C406   1.378       .  D
C406        C434   1.523       .  S
C407        H412   1.087       .  S
C407        C408   1.364       .  D
C408        C417   1.474       .  S
N413        C551   1.430       .  S
N413        C417   1.351       .  A
N413        C414   1.358       .  A
C414        C415   1.384       .  A
C415        C416   1.375       .  A
C415        H418   1.081       .  S
C416        C417   1.379       .  A
C416        H419   1.082       .  S
C420        C476   1.502       .  S
C420        C421   1.511       .  S
C420        C426   1.531       .  S
C420        C424   1.515       .  S
C421        H428   1.080       .  S
C421        C422   1.370       .  D
C422        C423   1.555       .  S
C423        C427   1.558       .  S
C423        C425   1.540       .  S
C423        H429   1.103       .  S
C424        H430   1.078       .  S
C424        C425   1.362       .  D
C425        C481   1.504       .  S
C426        H431   1.085       .  S
C426        C427   1.379       .  D
C427        C445   1.488       .  S
C432        C475   1.498       .  S
C432        C433   1.506       .  S
C432        C438   1.517       .  S
C432        C436   1.516       .  S
C433        H440   1.077       .  S
C433        C434   1.379       .  D
C434        C435   1.571       .  S
C435        C439   1.574       .  S
C435        C437   1.544       .  S
C435        H441   1.108       .  S
C436        H442   1.078       .  S
C436        C437   1.361       .  D
C437        C493   1.504       .  S
C438        H443   1.087   1_545  S
C438        C439   1.368       .  D
C439        C448   1.479       .  S
N444        C642   1.432       .  S
N444       C1168   1.358       .  A
N444        C445   1.358       .  A
C445        C446   1.381       .  A
C446       C1167   1.371       .  A
C446        H449   1.081       .  S
C447       C1166   1.371       .  A
C447        C448   1.380   1_565  A
C447        H450   1.082       .  S
C448       N1164   1.359       .  A
O451       Cu459   2.085       .  S
O452       Cu459   2.040       .  S
O453       C1183   1.274       .  A
O453       Cu459   2.012       .  S
O454        C464   1.278       .  A
O455       C1184   1.277   1_545  A
O455       Cu460   2.011       .  S
O456        C463   1.282       .  A
O457       C1182   1.275   1_546  A
O457       Cu460   1.991       .  S
O458       C1181   1.279   1_546  A
O458       Cu460   2.044       .  S
Cu459      Cu820   2.370       .  S
Cu460      Cu819   2.370   1_546  S
C461       O1178   1.279   1_554  A
C461        C478   1.510   1_554  S
C462       O1177   1.275   1_554  A
C462       N1344   1.435   1_554  S
C463       O1173   1.274   1_545  A
C463        C491   1.502       .  S
C464       O1175   1.277       .  A
C464        C479   1.497       .  S
O465        C475   1.278       .  A
O466       C1196   1.274   1_545  A
O466       Cu473   2.012       .  S
O467        C477   1.281       .  A
O467       Cu473   2.040       .  S
O468       C1198   1.289       .  A
O468       Cu473   2.085       .  S
O469       Cu474   2.044       .  S
O470        C837   1.275       .  A
O470       Cu474   1.991       .  S
O471        C476   1.282       .  A
O472       C1195   1.278       .  A
O472       Cu474   2.012       .  S
Cu473      Cu834   2.370   1_546  S
Cu474      Cu833   2.370       .  S
C475       O1192   1.278   1_545  A
C476       O1186   1.274       .  A
C477        O830   1.275   1_546  A
C477        N714   1.435   1_546  S
C478       O1188   1.289       .  A
C479        C480   1.516       .  S
C479        C485   1.517       .  S
C479        C483   1.506       .  S
C480        H487   1.078       .  S
C480        C481   1.361       .  D
C481        C482   1.544       .  S
C482        C486   1.573       .  S
C482        C484   1.571       .  S
C482        H488   1.108       .  S
C483        H489   1.077       .  S
C483        C484   1.379       .  D
C484        C512   1.523       .  S
C485        H490   1.087       .  S
C485        C486   1.368       .  D
C486        C504   1.479       .  S
C491        C492   1.515       .  S
C491        C497   1.531       .  S
C491        C495   1.510       .  S
C492        H499   1.078       .  S
C492        C493   1.362       .  D
C493        C494   1.540       .  S
C494        C498   1.558       .  S
C494        C496   1.555       .  S
C494        H500   1.103       .  S
C495        H501   1.080       .  S
C495        C496   1.369       .  D
C496        C524   1.496       .  S
C497        H502   1.085   1_545  S
C497        C498   1.379       .  D
C498        C507   1.488       .  S
N503        C656   1.432       .  S
N503       C1227   1.358       .  A
N503        C504   1.358       .  A
C504        C505   1.380       .  A
C505       C1226   1.371       .  A
C505        H508   1.082       .  S
C506       C1225   1.371       .  A
C506        C507   1.382       .  A
C506        H509   1.081       .  S
C507       N1223   1.358   1_545  A
C510        C511   1.502       .  S
C510        C516   1.515       .  S
C510        C514   1.521       .  S
C511        H518   1.077       .  S
C511        C512   1.378       .  D
C512        C513   1.576       .  S
C513        C517   1.566       .  S
C513        C515   1.537       .  S
C513        H519   1.108       .  S
C514        H520   1.082       .  S
C514        C515   1.363       .  D
C516        H521   1.087       .  S
C516        C517   1.364       .  D
C517        C538   1.474       .  S
C522        C523   1.518       .  S
C522        C528   1.534       .  S
C522        C526   1.514       .  S
C523        H530   1.080       .  S
C523        C524   1.372       .  D
C524        C525   1.546       .  S
C525        C529   1.563       .  S
C525        C527   1.540       .  S
C525        H531   1.104       .  S
C526        H532   1.081       .  S
C526        C527   1.358       .  D
C528        H533   1.085       .  S
C528        C529   1.381       .  D
C529        C535   1.492       .  S
N534        C567   1.431       .  S
N534        C538   1.351       .  A
N534        C535   1.358       .  A
C535        C536   1.384       .  A
C536        C537   1.375       .  A
C536        H539   1.081       .  S
C537        C538   1.379       .  A
C537        H540   1.082       .  S
O541        C551   1.280       .  A
O541       Cu549   2.014       .  S
O542       C1992   1.284       .  A
O542       Cu549   2.058       .  S
O543        C553   1.276       .  A
O543       Cu549   1.987       .  S
O544        C554   1.276       .  A
O544       Cu549   2.030       .  S
O545        C554   1.283       .  A
O545       Cu550   2.009       .  S
O546        C553   1.276       .  A
O546       Cu550   1.996       .  S
O547       C1992   1.281       .  A
O547       Cu550   2.050       .  S
O548        C551   1.274       .  A
O548       Cu550   2.003       .  S
Cu549      Cu550   2.371       .  S
C552       O1982   1.284       .  A
C552       O1987   1.281       .  A
C552        C568   1.502       .  S
C553        C659   1.490       .  S
C554        C671   1.513       .  S
O555        C565   1.283       .  A
O555       Cu563   2.009       .  S
O556        C566   1.277       .  A
O556       Cu563   1.997       .  S
O557        C567   1.274       .  A
O557       Cu563   2.003       .  S
O558        C568   1.281       .  A
O558       Cu563   2.050       .  S
O559        C568   1.284       .  A
O559       Cu564   2.058       .  S
O560        C567   1.280       .  A
O560       Cu564   2.014       .  S
O561        C566   1.276       .  A
O561       Cu564   1.986       .  S
O562        C565   1.276       .  A
O562       Cu564   2.029       .  S
Cu563      Cu564   2.372       .  S
C565        C569   1.513       .  S
C566        C581   1.490       .  S
C569        C570   1.513       .  S
C569        C575   1.536       .  S
C569        C573   1.511       .  S
C570        H577   1.078       .  S
C570        C571   1.372       .  D
C571        C572   1.553       .  S
C571        C605   1.506       .  S
C572        C576   1.563       .  S
C572        C574   1.544       .  S
C572        H578   1.106       .  S
C573        H579   1.081       .  S
C573        C574   1.359       .  D
C574       C2101   1.500       .  S
C575        H580   1.085       .  S
C575        C576   1.384       .  D
C576        C597   1.493       .  S
C581        C582   1.508       .  S
C581        C587   1.515       .  S
C581        C585   1.522       .  S
C582        H589   1.079       .  S
C582        C583   1.379       .  D
C583        C584   1.571       .  S
C583        C617   1.512       .  S
C584        C588   1.566       .  S
C584        C586   1.536       .  S
C584        H590   1.107       .  S
C585        H591   1.082       .  S
C585        C586   1.363       .  D
C586       C2113   1.500       .  S
C587        H592   1.087       .  S
C587        C588   1.361       .  D
C588        C594   1.474       .  S
N593        C594   1.354       .  A
C594        C595   1.379       .  A
C595        H598   1.082       .  S
C596        C597   1.383   1_554  A
C596        H599   1.080       .  S
C600        C658   1.494       .  S
C600        C601   1.521       .  S
C600        C606   1.521       .  S
C600        C604   1.503       .  S
C601        H608   1.081       .  S
C601        C602   1.365       .  D
C602        C603   1.537       .  S
C602       C2135   1.501       .  S
C603        C607   1.563       .  S
C603        C605   1.567       .  S
C603        H609   1.107       .  S
C604        H610   1.078       .  S
C604        C605   1.377       .  D
C606        H611   1.087       .  S
C606        C607   1.365       .  D
C607        C628   1.476       .  S
C612        C657   1.506       .  S
C612        C613   1.511       .  S
C612        C618   1.526       .  S
C612        C616   1.518       .  S
C613        H620   1.081       .  S
C613        C614   1.358       .  D
C614        C615   1.545       .  S
C614       C2147   1.500       .  S
C615        C619   1.566       .  S
C615        C617   1.557       .  S
C615        H621   1.106       .  S
C616        H622   1.079       .  S
C616        C617   1.375       .  D
C618        H623   1.084   1_545  S
C618        C619   1.379       .  D
C619        C625   1.488       .  S
N624       C1182   1.435   1_546  S
N624       C1348   1.357   1_545  A
C625        C626   1.382       .  A
C626        C987   1.372       .  A
C626        H629   1.080       .  S
C627        C986   1.372       .  A
C627        C628   1.380       .  A
C627        H630   1.082       .  S
C628       N1344   1.357       .  A
O631       C2081   1.281   1_455  A
O631       Cu639   2.045       .  S
O632        C642   1.276       .  A
O632       Cu639   1.987       .  S
O633        C643   1.280       .  A
O633       Cu639   1.994       .  S
O634       C1364   1.274       .  A
O634       Cu639   1.993       .  S
O635        C644   1.279       .  A
O635       Cu640   1.998       .  S
O636       C1363   1.278   1_545  A
O636       Cu640   2.031       .  S
O637       C1362   1.279       .  A
O637       Cu640   2.031       .  S
O638       C2801   1.285   1_545  A
O638       Cu640   2.065       .  S
Cu639     Cu1360   2.371       .  S
Cu640     Cu1359   2.371   1_545  S
C641       O2071   1.281       .  A
C641       O2798   1.285       .  A
C641        C655   1.503       .  S
C642       O1357   1.279       .  A
C643       O1356   1.278       .  A
C643        C690   1.506       .  S
C644       O1354   1.274   1_545  A
C644        C702   1.494       .  S
O645        C655   1.286       .  A
O645       Cu653   2.066       .  S
O646        C656   1.279       .  A
O646       Cu653   2.031       .  S
O647       C1377   1.278       .  A
O647       Cu653   2.030       .  S
O648        C658   1.279       .  A
O648       Cu653   1.998       .  S
O649       C1378   1.274   1_545  A
O649       Cu654   1.993       .  S
O650        C657   1.280       .  A
O650       Cu654   1.994       .  S
O651       C1376   1.276   1_545  A
O651       Cu654   1.986       .  S
O652       C1375   1.280   1_545  A
O652       Cu654   2.044       .  S
Cu653     Cu1374   2.371       .  S
Cu654     Cu1373   2.371   1_545  S
C655       O1372   1.280       .  A
C656       O1371   1.276       .  A
C657       O1367   1.278   1_545  A
C658       O1369   1.274       .  A
C659        C660   1.522       .  S
C659        C665   1.516       .  S
C659        C663   1.508       .  S
C660       H2107   1.082       .  S
C660        C661   1.363       .  D
C661        C662   1.536       .  S
C661       C2014   1.500   1_455  S
C662        C666   1.566       .  S
C662        C664   1.571       .  S
C662        H668   1.107       .  S
C663        H669   1.079       .  S
C663        C664   1.379       .  D
C664        C692   1.512       .  S
C665        H670   1.087       .  S
C665        C666   1.361       .  D
C666        C684   1.475       .  S
H667       C2100   1.082       .  S
C671        C672   1.511       .  S
C671        C677   1.536       .  S
C671        C675   1.513       .  S
C672       H2119   1.081       .  S
C672        C673   1.359   1_455  D
C673        C674   1.545   1_655  S
C673       C2026   1.500       .  S
C674        C678   1.563       .  S
C674        C676   1.553       .  S
C674        H680   1.106       .  S
C675        H681   1.078       .  S
C675        C676   1.372       .  D
C676        C704   1.507       .  S
C677        H682   1.085       .  S
C677        C678   1.384       .  D
C678        C687   1.493       .  S
H679       C2112   1.081       .  S
N683        C687   1.358       .  A
C684        C685   1.379       .  A
C685        H688   1.082   1_455  S
C686        C687   1.383       .  A
C686        H689   1.080   1_455  S
C690        C691   1.518       .  S
C690        C696   1.526       .  S
C690        C694   1.511       .  S
C691        H698   1.079       .  S
C691        C692   1.375       .  D
C692        C693   1.558       .  S
C693        C697   1.566       .  S
C693        C695   1.545   1_455  S
C693        H699   1.106       .  S
C694       H2140   1.080       .  S
C694        C695   1.358   1_455  D
C695       C2042   1.501       .  S
C696        H701   1.084       .  S
C696        C697   1.379       .  D
C697        C715   1.488       .  S
H700       C2134   1.080       .  S
C702        C703   1.503       .  S
C702        C708   1.521       .  S
C702        C706   1.521       .  S
C703        H710   1.078       .  S
C703        C704   1.377       .  D
C704        C705   1.567       .  S
C705        C709   1.563       .  S
C705        C707   1.537       .  S
C705        H711   1.107       .  S
C706       H2152   1.081       .  S
C706        C707   1.364       .  D
C707       C2054   1.500   1_455  S
C708        H713   1.087   1_545  S
C708        C709   1.365       .  D
C709        C718   1.476       .  S
H712       C2146   1.081       .  S
N714       C1435   1.360   1_554  A
C715       N1434   1.360   1_556  A
C715        C716   1.382   1_556  A
C716       C1077   1.373       .  A
C716        H719   1.080   1_455  S
C717       C1076   1.373       .  A
C717        C718   1.380   1_565  A
C717        H720   1.082   1_455  S
O721        C731   1.283       .  A
O721      Cu1089   2.008   1_554  S
O722        C732   1.276       .  A
O722       Cu729   2.001       .  S
O723       C1093   1.275       .  A
O723       Cu729   2.011       .  S
O724        C734   1.283       .  A
O724       Cu729   2.057       .  S
O725       C1094   1.284       .  A
O725       Cu730   2.057       .  S
O726        C733   1.279       .  A
O726       Cu730   2.010       .  S
O727        C732   1.277       .  A
O727      Cu1090   1.984       .  S
O728        C731   1.276       .  A
O728       Cu730   2.022       .  S
Cu729      O1081   2.008       .  S
Cu729     Cu1090   2.371       .  S
Cu730      O1087   1.983   1_554  S
Cu730     Cu1089   2.371   1_554  S
C731        C882   1.509       .  S
C732        C870   1.491       .  S
C733       O1083   1.275   1_554  A
C733        N953   1.432       .  S
C734       O1085   1.284       .  A
C734       C1105   1.504       .  S
O735        C745   1.283   1_554  A
O735       Cu743   2.057       .  S
O736        C746   1.275   1_554  A
O736       Cu743   2.011       .  S
O737        C747   1.276       .  A
O737       Cu743   2.000       .  S
O738        C748   1.283       .  A
O738      Cu1103   2.007       .  S
O739        C748   1.276       .  A
O739       Cu744   2.023       .  S
O740        C747   1.277       .  A
O740      Cu1104   1.984   1_554  S
O741       C1106   1.279       .  A
O741       Cu744   2.010       .  S
O742       C1105   1.284       .  A
O742       Cu744   2.056       .  S
Cu743      O1098   2.007   1_554  S
Cu743     Cu1104   2.371   1_554  S
Cu744      O1100   1.984       .  S
Cu744     Cu1103   2.371       .  S
C745       O1102   1.284       .  A
C745       C1094   1.504   1_556  S
C746       O1101   1.279       .  A
C746       N1043   1.432       .  S
C747        C761   1.491       .  S
C748        C749   1.509       .  S
C749        C750   1.514       .  S
C749        C755   1.534       .  S
C749        C753   1.518       .  S
C750        H757   1.081       .  S
C750        C751   1.359       .  D
C751        C752   1.540       .  S
C751        C875   1.499       .  S
C752        C756   1.563       .  S
C752        C754   1.546       .  S
C752        H758   1.104       .  S
C753        H759   1.080       .  S
C753        C754   1.372       .  D
C754        C782   1.496       .  S
C755        H760   1.085       .  S
C755        C756   1.381       .  D
C756        C774   1.492       .  S
C761        C762   1.521       .  S
C761        C767   1.515       .  S
C761        C765   1.502       .  S
C762        H769   1.082       .  S
C762        C763   1.363       .  D
C763        C764   1.537       .  S
C763        C887   1.499       .  S
C764        C768   1.566       .  S
C764        C766   1.576       .  S
C764        H770   1.108       .  S
C765        H771   1.077       .  S
C765        C766   1.378       .  D
C766        C794   1.523       .  S
C767        H772   1.087       .  S
C767        C768   1.364       .  D
C768        C777   1.474       .  S
N773        C911   1.430       .  S
N773        C777   1.351       .  A
N773        C774   1.358       .  A
C774        C775   1.384       .  A
C775        C776   1.375       .  A
C775        H778   1.081       .  S
C776        C777   1.379       .  A
C776        H779   1.082       .  S
C780        C836   1.502       .  S
C780        C781   1.511       .  S
C780        C786   1.531       .  S
C780        C784   1.515       .  S
C781        H788   1.080       .  S
C781        C782   1.370       .  D
C782        C783   1.555       .  S
C783        C787   1.558       .  S
C783        C785   1.540       .  S
C783        H789   1.103       .  S
C784        H790   1.078       .  S
C784        C785   1.362       .  D
C785        C841   1.504       .  S
C786        H791   1.085   1_565  S
C786        C787   1.379       .  D
C787        C805   1.488       .  S
C792        C835   1.498       .  S
C792        C793   1.506       .  S
C792        C798   1.517       .  S
C792        C796   1.516       .  S
C793        H800   1.077       .  S
C793        C794   1.379       .  D
C794        C795   1.571       .  S
C795        C799   1.574       .  S
C795        C797   1.544       .  S
C795        H801   1.108       .  S
C796        H802   1.078       .  S
C796        C797   1.361       .  D
C797        C853   1.504       .  S
C798        H803   1.087       .  S
C798        C799   1.368       .  D
C799        C808   1.479       .  S
N804       C1002   1.432       .  S
N804        C805   1.358   1_545  A
C805        C806   1.381       .  A
C806        H809   1.081       .  S
C807        C808   1.380       .  A
C807        H810   1.082       .  S
O811       C1181   1.289       .  A
O811       Cu819   2.085       .  S
O812       C1182   1.281       .  A
O812       Cu819   2.039       .  S
O813       Cu819   2.013       .  S
O814        C824   1.278       .  A
O814      Cu1179   1.992       .  S
O815       Cu820   2.011       .  S
O816        C823   1.282       .  A
O816      Cu1180   1.999   1_554  S
O817       Cu820   1.991       .  S
O818       Cu820   2.045       .  S
Cu819      O1174   1.992   1_554  S
Cu820      O1176   1.999       .  S
C821       O1171   1.289       .  A
C821        C838   1.510   1_565  S
C822       O1172   1.281       .  A
C823        C851   1.502       .  S
C824        C839   1.497       .  S
O825        C835   1.278       .  A
O825      Cu1193   1.992   1_554  S
O826       Cu833   2.012       .  S
O827        C837   1.281       .  A
O827       Cu833   2.039       .  S
O828       Cu833   2.085       .  S
O829       C1198   1.279   1_564  A
O829       Cu834   2.044       .  S
O830       Cu834   1.991       .  S
O831        C836   1.282       .  A
O831      Cu1194   2.000       .  S
O832       Cu834   2.012       .  S
Cu833      O1185   1.992       .  S
Cu834      O1191   2.000   1_554  S
C837       N1074   1.435       .  S
C838       O1189   1.279   1_545  A
C839        C840   1.516       .  S
C839        C845   1.517       .  S
C839        C843   1.506       .  S
C840        H847   1.078       .  S
C840        C841   1.361       .  D
C841        C842   1.544       .  S
C842        C846   1.573       .  S
C842        C844   1.571       .  S
C842        H848   1.108       .  S
C843        H849   1.077       .  S
C843        C844   1.379       .  D
C844        C872   1.523       .  S
C845        H850   1.087   1_565  S
C845        C846   1.368       .  D
C846        C864   1.479       .  S
C851        C852   1.515       .  S
C851        C857   1.531       .  S
C851        C855   1.510       .  S
C852        H859   1.078       .  S
C852        C853   1.362       .  D
C853        C854   1.540       .  S
C854        C858   1.558       .  S
C854        C856   1.555       .  S
C854        H860   1.103       .  S
C855        H861   1.080       .  S
C855        C856   1.369       .  D
C856        C884   1.496       .  S
C857        H862   1.085       .  S
C857        C858   1.379       .  D
C858        C867   1.488       .  S
N863       C1016   1.432       .  S
N863        C864   1.358       .  A
C864        C865   1.380   1_565  A
C865        H868   1.082       .  S
C866        C867   1.382       .  A
C866        H869   1.081       .  S
C870        C871   1.502       .  S
C870        C876   1.515       .  S
C870        C874   1.521       .  S
C871        H878   1.077       .  S
C871        C872   1.378       .  D
C872        C873   1.576       .  S
C873        C877   1.566       .  S
C873        C875   1.537       .  S
C873        H879   1.108       .  S
C874        H880   1.082       .  S
C874        C875   1.363       .  D
C876        H881   1.087       .  S
C876        C877   1.364       .  D
C877        C898   1.474       .  S
C882        C883   1.518       .  S
C882        C888   1.534       .  S
C882        C886   1.514       .  S
C883        H890   1.080       .  S
C883        C884   1.372       .  D
C884        C885   1.546       .  S
C885        C889   1.563       .  S
C885        C887   1.540       .  S
C885        H891   1.104       .  S
C886        H892   1.081       .  S
C886        C887   1.359       .  D
C888        H893   1.085       .  S
C888        C889   1.381       .  D
C889        C895   1.492       .  S
N894        C927   1.431       .  S
N894        C898   1.351       .  A
N894        C895   1.358       .  A
C895        C896   1.384       .  A
C896        C897   1.375       .  A
C896        H899   1.081       .  S
C897        C898   1.379       .  A
C897        H900   1.082       .  S
O901        C911   1.280       .  A
O901       Cu909   2.014       .  S
O902       C2352   1.284       .  A
O902       Cu909   2.058       .  S
O903        C913   1.276       .  A
O903       Cu909   1.986       .  S
O904        C914   1.276       .  A
O904       Cu909   2.030       .  S
O905        C914   1.283       .  A
O905       Cu910   2.009       .  S
O906        C913   1.276       .  A
O906       Cu910   1.996       .  S
O907       C2352   1.281       .  A
O907       Cu910   2.051       .  S
O908        C911   1.274       .  A
O908       Cu910   2.003       .  S
Cu909      Cu910   2.371       .  S
C912       O2342   1.284       .  A
C912       O2347   1.281       .  A
C912        C928   1.502       .  S
C913       C1019   1.490       .  S
C914       C1031   1.513       .  S
O915        C925   1.283       .  A
O915       Cu923   2.009       .  S
O916        C926   1.277       .  A
O916       Cu923   1.997       .  S
O917        C927   1.274       .  A
O917       Cu923   2.003       .  S
O918        C928   1.281       .  A
O918       Cu923   2.050       .  S
O919        C928   1.284       .  A
O919       Cu924   2.058       .  S
O920        C927   1.280       .  A
O920       Cu924   2.014       .  S
O921        C926   1.276       .  A
O921       Cu924   1.986       .  S
O922        C925   1.276       .  A
O922       Cu924   2.029       .  S
Cu923      Cu924   2.372       .  S
C925        C929   1.513       .  S
C926        C941   1.490       .  S
C929        C930   1.513       .  S
C929        C935   1.536       .  S
C929        C933   1.511       .  S
C930        H937   1.078       .  S
C930        C931   1.372       .  D
C931        C932   1.553       .  S
C931        C965   1.506       .  S
C932        C936   1.563       .  S
C932        C934   1.544       .  S
C932        H938   1.106       .  S
C933        H939   1.081       .  S
C933        C934   1.359       .  D
C934       C2461   1.500       .  S
C935        H940   1.085       .  S
C935        C936   1.384       .  D
C936        C957   1.493       .  S
C941        C942   1.508       .  S
C941        C947   1.515       .  S
C941        C945   1.522       .  S
C942        H949   1.079       .  S
C942        C943   1.379       .  D
C943        C944   1.571       .  S
C943        C977   1.512       .  S
C944        C948   1.566       .  S
C944        C946   1.536       .  S
C944        H950   1.107       .  S
C945        H951   1.082       .  S
C945        C946   1.363       .  D
C946       C2473   1.500       .  S
C947        H952   1.087       .  S
C947        C948   1.361       .  D
C948        C954   1.474       .  S
N953       C1317   1.358   1_554  A
N953        C954   1.354       .  A
C954        C955   1.379       .  A
C955       C1316   1.375       .  A
C955        H958   1.082       .  S
C956       C1315   1.375       .  A
C956        C957   1.383       .  A
C956        H959   1.080       .  S
C957       N1313   1.358       .  A
C960       C1018   1.494       .  S
C960        C961   1.521       .  S
C960        C966   1.521       .  S
C960        C964   1.503       .  S
C961        H968   1.081       .  S
C961        C962   1.365       .  D
C962        C963   1.537       .  S
C962       C2495   1.501       .  S
C963        C967   1.563       .  S
C963        C965   1.567       .  S
C963        H969   1.107       .  S
C964        H970   1.078       .  S
C964        C965   1.377       .  D
C966        H971   1.087   1_565  S
C966        C967   1.365       .  D
C967        C988   1.476       .  S
C972       C1017   1.506       .  S
C972        C973   1.511       .  S
C972        C978   1.526       .  S
C972        C976   1.518       .  S
C973        H980   1.081       .  S
C973        C974   1.358       .  D
C974        C975   1.545       .  S
C974       C2507   1.500       .  S
C975        C979   1.566       .  S
C975        C977   1.557       .  S
C975        H981   1.106       .  S
C976        H982   1.079       .  S
C976        C977   1.375       .  D
C978        H983   1.084       .  S
C978        C979   1.379       .  D
C979        C985   1.488       .  S
N984       C1345   1.360       .  A
C985       N1344   1.360   1_554  A
C985        C986   1.382   1_554  A
C986        H989   1.080       .  S
C987        C988   1.380   1_545  A
C987        H990   1.082       .  S
O991       C2441   1.280       .  A
O991       Cu999   2.045       .  S
O992       C1002   1.276   1_565  A
O992       Cu999   1.986       .  S
O993       C1003   1.280       .  A
O993       Cu999   1.994       .  S
O994       Cu999   1.993       .  S
O995       C1004   1.279       .  A
O995      Cu1000   1.998       .  S
O996      Cu1000   2.031       .  S
O997      Cu1000   2.031       .  S
O998       C1721   1.285   1_455  A
O998      Cu1000   2.065       .  S
C1001      O2431   1.280       .  A
C1001      O1718   1.285   1_565  A
C1001      C1015   1.503       .  S
C1003      C1050   1.506       .  S
C1004      C1062   1.494       .  S
O1005      C1015   1.286       .  A
O1005     Cu1013   2.066       .  S
O1006      C1016   1.279       .  A
O1006     Cu1013   2.031       .  S
O1007     Cu1013   2.030       .  S
O1008      C1018   1.279       .  A
O1008     Cu1013   1.998       .  S
O1009     Cu1014   1.993       .  S
O1010      C1017   1.280       .  A
O1010     Cu1014   1.994       .  S
O1011     Cu1014   1.986       .  S
O1012     Cu1014   2.044       .  S
C1019      C1020   1.522       .  S
C1019      C1025   1.516       .  S
C1019      C1023   1.508       .  S
C1020      H2467   1.082       .  S
C1020      C1021   1.363       .  D
C1021      C1022   1.536       .  S
C1021      C2374   1.500   1_455  S
C1022      C1026   1.565       .  S
C1022      C1024   1.571       .  S
C1022      H1028   1.107       .  S
C1023      H1029   1.079       .  S
C1023      C1024   1.379       .  D
C1024      C1052   1.512       .  S
C1025      H1030   1.087       .  S
C1025      C1026   1.361       .  D
C1026      C1044   1.475       .  S
H1027      C2460   1.082       .  S
C1031      C1032   1.511       .  S
C1031      C1037   1.536       .  S
C1031      C1035   1.513       .  S
C1032      H2479   1.081       .  S
C1032      C1033   1.359   1_455  D
C1033      C1034   1.545   1_655  S
C1033      C2386   1.500       .  S
C1034      C1038   1.563       .  S
C1034      C1036   1.553       .  S
C1034      H1040   1.106       .  S
C1035      H1041   1.078       .  S
C1035      C1036   1.372       .  D
C1036      C1064   1.507       .  S
C1037      H1042   1.085       .  S
C1037      C1038   1.384       .  D
C1038      C1047   1.493       .  S
H1039      C2472   1.081       .  S
N1043      C1047   1.358   1_556  A
N1043      C1404   1.354       .  A
C1044      N1403   1.354       .  A
C1044      C1045   1.379       .  A
C1045      C1406   1.375       .  A
C1045      H1048   1.082   1_455  S
C1046      C1405   1.375       .  A
C1046      C1047   1.383   1_556  A
C1046      H1049   1.080   1_455  S
C1050      C1051   1.518       .  S
C1050      C1056   1.526       .  S
C1050      C1054   1.511       .  S
C1051      H1058   1.079       .  S
C1051      C1052   1.375       .  D
C1052      C1053   1.558       .  S
C1053      C1057   1.566       .  S
C1053      C1055   1.545   1_455  S
C1053      H1059   1.106       .  S
C1054      H2500   1.080       .  S
C1054      C1055   1.358   1_455  D
C1055      C2402   1.501       .  S
C1056      H1061   1.084       .  S
C1056      C1057   1.379       .  D
C1057      C1075   1.488       .  S
H1060      C2494   1.080       .  S
C1062      C1063   1.503       .  S
C1062      C1068   1.521       .  S
C1062      C1066   1.521       .  S
C1063      H1070   1.078       .  S
C1063      C1064   1.377       .  D
C1064      C1065   1.567       .  S
C1065      C1069   1.563       .  S
C1065      C1067   1.537       .  S
C1065      H1071   1.107       .  S
C1066      H2512   1.081       .  S
C1066      C1067   1.364       .  D
C1067      C2414   1.500   1_455  S
C1068      H1073   1.087       .  S
C1068      C1069   1.365       .  D
C1069      C1078   1.476       .  S
H1072      C2506   1.081       .  S
N1074      C1438   1.357       .  A
C1075      C1076   1.382       .  A
C1076      H1079   1.080   1_455  S
C1077      C1078   1.380       .  A
C1077      H1080   1.082   1_455  S
C1078      N1434   1.357       .  A
O1081      C1091   1.283       .  A
O1082      C1092   1.276       .  A
O1082     Cu1089   2.001       .  S
O1083     Cu1089   2.011       .  S
O1084      C1094   1.283   1_556  A
O1084     Cu1089   2.056       .  S
O1085     Cu1090   2.057       .  S
O1086      C1093   1.279       .  A
O1086     Cu1090   2.010       .  S
O1087      C1092   1.277       .  A
O1088      C1091   1.276       .  A
O1088     Cu1090   2.022       .  S
C1091      C1242   1.509       .  S
C1092      C1230   1.491       .  S
C1093      N1313   1.432       .  S
O1095      C1105   1.283       .  A
O1095     Cu1103   2.057       .  S
O1096      C1106   1.275       .  A
O1096     Cu1103   2.011       .  S
O1097      C1107   1.276       .  A
O1097     Cu1103   2.000       .  S
O1098      C1108   1.283       .  A
O1099      C1108   1.276       .  A
O1099     Cu1104   2.023       .  S
O1100      C1107   1.277       .  A
O1101     Cu1104   2.010       .  S
O1102     Cu1104   2.056       .  S
C1106      N1403   1.432       .  S
C1107      C1121   1.491       .  S
C1108      C1109   1.509       .  S
C1109      C1110   1.514       .  S
C1109      C1115   1.534       .  S
C1109      C1113   1.518       .  S
C1110      H1117   1.081       .  S
C1110      C1111   1.359       .  D
C1111      C1112   1.540       .  S
C1111      C1235   1.499       .  S
C1112      C1116   1.563       .  S
C1112      C1114   1.546       .  S
C1112      H1118   1.104       .  S
C1113      H1119   1.080       .  S
C1113      C1114   1.372       .  D
C1114      C1142   1.496       .  S
C1115      H1120   1.085       .  S
C1115      C1116   1.381       .  D
C1116      C1134   1.492       .  S
C1121      C1122   1.521       .  S
C1121      C1127   1.515       .  S
C1121      C1125   1.502       .  S
C1122      H1129   1.082       .  S
C1122      C1123   1.363       .  D
C1123      C1124   1.537       .  S
C1123      C1247   1.499       .  S
C1124      C1128   1.566       .  S
C1124      C1126   1.576       .  S
C1124      H1130   1.108       .  S
C1125      H1131   1.077       .  S
C1125      C1126   1.378       .  D
C1126      C1154   1.523       .  S
C1127      H1132   1.087       .  S
C1127      C1128   1.364       .  D
C1128      C1137   1.474       .  S
N1133      C1271   1.431       .  S
N1133      C1137   1.351       .  A
N1133      C1134   1.358       .  A
C1134      C1135   1.384       .  A
C1135      C1136   1.375       .  A
C1135      H1138   1.081       .  S
C1136      C1137   1.379       .  A
C1136      H1139   1.082       .  S
C1140      C1196   1.502       .  S
C1140      C1141   1.511       .  S
C1140      C1146   1.531       .  S
C1140      C1144   1.515       .  S
C1141      H1148   1.080       .  S
C1141      C1142   1.370       .  D
C1142      C1143   1.555       .  S
C1143      C1147   1.558       .  S
C1143      C1145   1.540       .  S
C1143      H1149   1.103       .  S
C1144      H1150   1.078       .  S
C1144      C1145   1.362       .  D
C1145      C1201   1.504       .  S
C1146      H1151   1.085   1_565  S
C1146      C1147   1.379       .  D
C1147      C1165   1.488       .  S
C1152      C1195   1.498       .  S
C1152      C1153   1.506       .  S
C1152      C1158   1.517       .  S
C1152      C1156   1.516       .  S
C1153      H1160   1.077       .  S
C1153      C1154   1.379       .  D
C1154      C1155   1.571       .  S
C1155      C1159   1.574       .  S
C1155      C1157   1.544       .  S
C1155      H1161   1.108       .  S
C1156      H1162   1.078       .  S
C1156      C1157   1.361       .  D
C1157      C1213   1.504       .  S
C1158      H1163   1.087       .  S
C1158      C1159   1.368       .  D
C1159      C1168   1.479       .  S
N1164      C1362   1.432       .  S
N1164      C1165   1.358   1_545  A
C1165      C1166   1.381       .  A
C1166      H1169   1.081       .  S
C1167      C1168   1.380       .  A
C1167      H1170   1.082       .  S
O1171     Cu1179   2.085       .  S
O1172     Cu1179   2.040       .  S
O1173     Cu1179   2.012       .  S
O1174      C1184   1.278       .  A
O1175     Cu1180   2.011       .  S
O1176      C1183   1.282       .  A
O1177     Cu1180   1.991       .  S
O1178     Cu1180   2.045       .  S
C1181      C1198   1.510   1_564  S
C1183      C1211   1.502       .  S
C1184      C1199   1.497       .  S
O1185      C1195   1.278       .  A
O1186     Cu1193   2.012       .  S
O1187      C1197   1.281       .  A
O1187     Cu1193   2.039       .  S
O1188     Cu1193   2.085       .  S
O1189     Cu1194   2.044       .  S
O1190     Cu1194   1.991       .  S
O1191      C1196   1.282       .  A
O1192     Cu1194   2.012       .  S
C1197      N1434   1.435   1_556  S
C1199      C1200   1.516       .  S
C1199      C1205   1.517       .  S
C1199      C1203   1.506       .  S
C1200      H1207   1.078       .  S
C1200      C1201   1.361       .  D
C1201      C1202   1.544       .  S
C1202      C1206   1.573       .  S
C1202      C1204   1.571       .  S
C1202      H1208   1.108       .  S
C1203      H1209   1.077       .  S
C1203      C1204   1.379       .  D
C1204      C1232   1.523       .  S
C1205      H1210   1.087   1_565  S
C1205      C1206   1.368       .  D
C1206      C1224   1.479       .  S
C1211      C1212   1.515       .  S
C1211      C1217   1.531       .  S
C1211      C1215   1.510       .  S
C1212      H1219   1.078       .  S
C1212      C1213   1.362       .  D
C1213      C1214   1.540       .  S
C1214      C1218   1.558       .  S
C1214      C1216   1.555       .  S
C1214      H1220   1.103       .  S
C1215      H1221   1.080       .  S
C1215      C1216   1.369       .  D
C1216      C1244   1.496       .  S
C1217      H1222   1.085       .  S
C1217      C1218   1.379       .  D
C1218      C1227   1.488       .  S
N1223      C1376   1.432       .  S
N1223      C1224   1.358       .  A
C1224      C1225   1.380   1_565  A
C1225      H1228   1.082       .  S
C1226      C1227   1.382       .  A
C1226      H1229   1.081       .  S
C1230      C1231   1.502       .  S
C1230      C1236   1.515       .  S
C1230      C1234   1.521       .  S
C1231      H1238   1.077       .  S
C1231      C1232   1.378       .  D
C1232      C1233   1.576       .  S
C1233      C1237   1.566       .  S
C1233      C1235   1.537       .  S
C1233      H1239   1.108       .  S
C1234      H1240   1.082       .  S
C1234      C1235   1.363       .  D
C1236      H1241   1.087       .  S
C1236      C1237   1.364       .  D
C1237      C1258   1.474       .  S
C1242      C1243   1.518       .  S
C1242      C1248   1.534       .  S
C1242      C1246   1.514       .  S
C1243      H1250   1.080       .  S
C1243      C1244   1.372       .  D
C1244      C1245   1.546       .  S
C1245      C1249   1.563       .  S
C1245      C1247   1.540       .  S
C1245      H1251   1.104       .  S
C1246      H1252   1.081       .  S
C1246      C1247   1.359       .  D
C1248      H1253   1.085       .  S
C1248      C1249   1.381       .  D
C1249      C1255   1.492       .  S
N1254      C1287   1.431       .  S
N1254      C1258   1.351       .  A
N1254      C1255   1.358       .  A
C1255      C1256   1.384       .  A
C1256      C1257   1.375       .  A
C1256      H1259   1.081       .  S
C1257      C1258   1.379       .  A
C1257      H1260   1.082       .  S
O1261      C1271   1.280       .  A
O1261     Cu1269   2.014       .  S
O1262      C2712   1.284       .  A
O1262     Cu1269   2.058       .  S
O1263      C1273   1.276       .  A
O1263     Cu1269   1.986       .  S
O1264      C1274   1.276       .  A
O1264     Cu1269   2.030       .  S
O1265      C1274   1.283       .  A
O1265     Cu1270   2.009       .  S
O1266      C1273   1.276       .  A
O1266     Cu1270   1.996       .  S
O1267      C2712   1.281       .  A
O1267     Cu1270   2.050       .  S
O1268      C1271   1.274       .  A
O1268     Cu1270   2.003       .  S
Cu1269    Cu1270   2.371       .  S
C1272      O2702   1.284       .  A
C1272      O2707   1.281       .  A
C1272      C1288   1.502       .  S
C1273      C1379   1.490       .  S
C1274      C1391   1.513       .  S
O1275      C1285   1.283       .  A
O1275     Cu1283   2.009       .  S
O1276      C1286   1.277       .  A
O1276     Cu1283   1.997       .  S
O1277      C1287   1.274       .  A
O1277     Cu1283   2.003       .  S
O1278      C1288   1.281       .  A
O1278     Cu1283   2.050       .  S
O1279      C1288   1.284       .  A
O1279     Cu1284   2.058       .  S
O1280      C1287   1.280       .  A
O1280     Cu1284   2.014       .  S
O1281      C1286   1.276       .  A
O1281     Cu1284   1.986       .  S
O1282      C1285   1.276       .  A
O1282     Cu1284   2.029       .  S
Cu1283    Cu1284   2.372       .  S
C1285      C1289   1.513       .  S
C1286      C1301   1.490       .  S
C1289      C1290   1.513       .  S
C1289      C1295   1.536       .  S
C1289      C1293   1.511       .  S
C1290      H1297   1.078       .  S
C1290      C1291   1.372       .  D
C1291      C1292   1.553       .  S
C1291      C1325   1.506       .  S
C1292      C1296   1.563       .  S
C1292      C1294   1.544       .  S
C1292      H1298   1.106       .  S
C1293      H1299   1.081       .  S
C1293      C1294   1.359       .  D
C1294      C2821   1.500       .  S
C1295      H1300   1.085       .  S
C1295      C1296   1.384       .  D
C1296      C1317   1.493       .  S
C1301      C1302   1.508       .  S
C1301      C1307   1.515       .  S
C1301      C1305   1.523       .  S
C1302      H1309   1.079       .  S
C1302      C1303   1.379       .  D
C1303      C1304   1.571       .  S
C1303      C1337   1.512       .  S
C1304      C1308   1.565       .  S
C1304      C1306   1.536       .  S
C1304      H1310   1.107       .  S
C1305      H1311   1.082       .  S
C1305      C1306   1.363       .  D
C1306      C2833   1.500       .  S
C1307      H1312   1.087       .  S
C1307      C1308   1.361       .  D
C1308      C1314   1.474       .  S
N1313      C1314   1.354       .  A
C1314      C1315   1.379       .  A
C1315      H1318   1.082       .  S
C1316      C1317   1.383   1_554  A
C1316      H1319   1.080       .  S
C1320      C1378   1.494       .  S
C1320      C1321   1.521       .  S
C1320      C1326   1.521       .  S
C1320      C1324   1.503       .  S
C1321      H1328   1.081       .  S
C1321      C1322   1.365       .  D
C1322      C1323   1.537       .  S
C1322      C2855   1.501       .  S
C1323      C1327   1.563       .  S
C1323      C1325   1.567       .  S
C1323      H1329   1.107       .  S
C1324      H1330   1.078       .  S
C1324      C1325   1.377       .  D
C1326      H1331   1.087   1_565  S
C1326      C1327   1.365       .  D
C1327      C1348   1.476       .  S
C1332      C1377   1.506       .  S
C1332      C1333   1.511       .  S
C1332      C1338   1.526       .  S
C1332      C1336   1.518       .  S
C1333      H1340   1.081       .  S
C1333      C1334   1.358       .  D
C1334      C1335   1.545       .  S
C1334      C2867   1.500       .  S
C1335      C1339   1.566       .  S
C1335      C1337   1.557       .  S
C1335      H1341   1.106       .  S
C1336      H1342   1.079       .  S
C1336      C1337   1.375       .  D
C1338      H1343   1.084       .  S
C1338      C1339   1.379       .  D
C1339      C1345   1.488       .  S
C1345      C1346   1.382       .  A
C1346      H1349   1.080       .  S
C1347      C1348   1.380   1_545  A
C1347      H1350   1.082       .  S
O1351      C2801   1.281       .  A
O1351     Cu1359   2.045       .  S
O1352      C1362   1.276   1_565  A
O1352     Cu1359   1.987       .  S
O1353      C1363   1.280       .  A
O1353     Cu1359   1.994       .  S
O1354     Cu1359   1.993       .  S
O1355      C1364   1.279       .  A
O1355     Cu1360   1.998       .  S
O1356     Cu1360   2.031       .  S
O1357     Cu1360   2.031       .  S
O1358      C2081   1.285   1_455  A
O1358     Cu1360   2.065       .  S
C1361      O2791   1.281       .  A
C1361      O2078   1.285   1_565  A
C1361      C1375   1.503       .  S
C1363      C1410   1.506       .  S
C1364      C1422   1.494       .  S
O1365      C1375   1.286       .  A
O1365     Cu1373   2.066       .  S
O1366      C1376   1.279       .  A
O1366     Cu1373   2.031       .  S
O1367     Cu1373   2.030       .  S
O1368      C1378   1.279       .  A
O1368     Cu1373   1.998       .  S
O1369     Cu1374   1.993       .  S
O1370      C1377   1.280       .  A
O1370     Cu1374   1.994       .  S
O1371     Cu1374   1.986       .  S
O1372     Cu1374   2.044       .  S
C1379      C1380   1.522       .  S
C1379      C1385   1.516       .  S
C1379      C1383   1.508       .  S
C1380      H2827   1.082       .  S
C1380      C1381   1.363       .  D
C1381      C1382   1.536       .  S
C1381      C2734   1.500   1_455  S
C1382      C1386   1.566       .  S
C1382      C1384   1.571       .  S
C1382      H1388   1.107       .  S
C1383      H1389   1.079       .  S
C1383      C1384   1.379       .  D
C1384      C1412   1.512       .  S
C1385      H1390   1.087       .  S
C1385      C1386   1.361       .  D
C1386      C1404   1.475       .  S
H1387      C2820   1.082       .  S
C1391      C1392   1.511       .  S
C1391      C1397   1.536       .  S
C1391      C1395   1.513       .  S
C1392      H2839   1.081       .  S
C1392      C1393   1.359   1_455  D
C1393      C1394   1.545   1_655  S
C1393      C2746   1.500       .  S
C1394      C1398   1.563       .  S
C1394      C1396   1.553       .  S
C1394      H1400   1.106       .  S
C1395      H1401   1.078       .  S
C1395      C1396   1.372       .  D
C1396      C1424   1.507       .  S
C1397      H1402   1.085       .  S
C1397      C1398   1.384       .  D
C1398      C1407   1.493       .  S
H1399      C2832   1.081       .  S
N1403      C1407   1.358       .  A
C1404      C1405   1.379       .  A
C1405      H1408   1.082   1_455  S
C1406      C1407   1.383       .  A
C1406      H1409   1.080   1_455  S
C1410      C1411   1.518       .  S
C1410      C1416   1.526       .  S
C1410      C1414   1.512       .  S
C1411      H1418   1.079       .  S
C1411      C1412   1.375       .  D
C1412      C1413   1.558       .  S
C1413      C1417   1.566       .  S
C1413      C1415   1.545   1_455  S
C1413      H1419   1.106       .  S
C1414      H2860   1.080       .  S
C1414      C1415   1.358   1_455  D
C1415      C2762   1.501       .  S
C1416      H1421   1.084       .  S
C1416      C1417   1.379       .  D
C1417      C1435   1.488       .  S
H1420      C2854   1.080       .  S
C1422      C1423   1.503       .  S
C1422      C1428   1.521       .  S
C1422      C1426   1.521       .  S
C1423      H1430   1.078       .  S
C1423      C1424   1.377       .  D
C1424      C1425   1.567       .  S
C1425      C1429   1.563       .  S
C1425      C1427   1.537       .  S
C1425      H1431   1.107       .  S
C1426      H2872   1.081       .  S
C1426      C1427   1.365       .  D
C1427      C2774   1.500   1_455  S
C1428      H1433   1.087       .  S
C1428      C1429   1.365       .  D
C1429      C1438   1.476       .  S
H1432      C2866   1.081       .  S
C1435      C1436   1.382   1_556  A
C1436      H1439   1.080   1_455  S
C1437      C1438   1.380       .  A
C1437      H1440   1.082   1_455  S
O1441      C1451   1.283       .  A
O1441     Cu1809   2.008   1_554  S
O1442      C1452   1.276       .  A
O1442     Cu1449   2.001       .  S
O1443      C1813   1.275       .  A
O1443     Cu1449   2.011       .  S
O1444      C1454   1.283       .  A
O1444     Cu1449   2.056       .  S
O1445      C1814   1.284       .  A
O1445     Cu1450   2.057       .  S
O1446      C1453   1.279       .  A
O1446     Cu1450   2.010       .  S
O1447      C1452   1.277       .  A
O1447     Cu1810   1.984       .  S
O1448      C1451   1.276       .  A
O1448     Cu1450   2.022       .  S
Cu1449     O1801   2.008       .  S
Cu1449    Cu1810   2.371       .  S
Cu1450     O1807   1.984   1_554  S
Cu1450    Cu1809   2.371   1_554  S
C1451      C1602   1.509       .  S
C1452      C1590   1.491       .  S
C1453      O1803   1.275   1_554  A
C1453      N1673   1.432       .  S
C1454      O1805   1.284       .  A
C1454      C1825   1.504       .  S
O1455      C1465   1.283   1_554  A
O1455     Cu1463   2.057       .  S
O1456      C1466   1.275   1_554  A
O1456     Cu1463   2.011       .  S
O1457      C1467   1.276       .  A
O1457     Cu1463   2.000       .  S
O1458      C1468   1.283       .  A
O1458     Cu1823   2.007       .  S
O1459      C1468   1.276       .  A
O1459     Cu1464   2.023       .  S
O1460      C1467   1.277       .  A
O1460     Cu1824   1.984   1_554  S
O1461      C1826   1.279       .  A
O1461     Cu1464   2.010       .  S
O1462      C1825   1.284       .  A
O1462     Cu1464   2.056       .  S
Cu1463     O1818   2.007   1_554  S
Cu1463    Cu1824   2.371   1_554  S
Cu1464     O1820   1.984       .  S
Cu1464    Cu1823   2.371       .  S
C1465      O1822   1.284       .  A
C1465      C1814   1.504   1_556  S
C1466      O1821   1.279       .  A
C1466      N1763   1.432       .  S
C1467      C1481   1.491       .  S
C1468      C1469   1.509       .  S
C1469      C1470   1.514       .  S
C1469      C1475   1.534       .  S
C1469      C1473   1.518       .  S
C1470      H1477   1.081       .  S
C1470      C1471   1.359       .  D
C1471      C1472   1.540       .  S
C1471      C1595   1.499       .  S
C1472      C1476   1.563       .  S
C1472      C1474   1.546       .  S
C1472      H1478   1.104       .  S
C1473      H1479   1.080       .  S
C1473      C1474   1.372       .  D
C1474      C1502   1.496       .  S
C1475      H1480   1.085       .  S
C1475      C1476   1.381       .  D
C1476      C1494   1.492       .  S
C1481      C1482   1.521       .  S
C1481      C1487   1.515       .  S
C1481      C1485   1.502       .  S
C1482      H1489   1.082       .  S
C1482      C1483   1.363       .  D
C1483      C1484   1.537       .  S
C1483      C1607   1.499       .  S
C1484      C1488   1.566       .  S
C1484      C1486   1.576       .  S
C1484      H1490   1.108       .  S
C1485      H1491   1.077       .  S
C1485      C1486   1.378       .  D
C1486      C1514   1.523       .  S
C1487      H1492   1.087       .  S
C1487      C1488   1.364       .  D
C1488      C1497   1.474       .  S
N1493      C1631   1.431       .  S
N1493      C1497   1.351       .  A
N1493      C1494   1.358       .  A
C1494      C1495   1.384       .  A
C1495      C1496   1.375       .  A
C1495      H1498   1.081       .  S
C1496      C1497   1.379       .  A
C1496      H1499   1.082       .  S
C1500      C1556   1.502       .  S
C1500      C1501   1.511       .  S
C1500      C1506   1.531       .  S
C1500      C1504   1.515       .  S
C1501      H1508   1.080       .  S
C1501      C1502   1.370       .  D
C1502      C1503   1.555       .  S
C1503      C1507   1.558       .  S
C1503      C1505   1.540       .  S
C1503      H1509   1.103       .  S
C1504      H1510   1.078       .  S
C1504      C1505   1.362       .  D
C1505      C1561   1.504       .  S
C1506      H1511   1.085       .  S
C1506      C1507   1.379       .  D
C1507      C1525   1.488       .  S
C1512      C1555   1.497       .  S
C1512      C1513   1.506       .  S
C1512      C1518   1.517       .  S
C1512      C1516   1.516       .  S
C1513      H1520   1.077       .  S
C1513      C1514   1.379       .  D
C1514      C1515   1.571       .  S
C1515      C1519   1.574       .  S
C1515      C1517   1.544       .  S
C1515      H1521   1.108       .  S
C1516      H1522   1.078       .  S
C1516      C1517   1.361       .  D
C1517      C1573   1.504       .  S
C1518      H1523   1.087   1_545  S
C1518      C1519   1.368       .  D
C1519      C1528   1.479       .  S
N1524      C1722   1.432       .  S
N1524      C2248   1.359       .  A
N1524      C1525   1.358       .  A
C1525      C1526   1.381       .  A
C1526      C2247   1.371       .  A
C1526      H1529   1.081       .  S
C1527      C2246   1.371       .  A
C1527      C1528   1.380   1_565  A
C1527      H1530   1.082       .  S
C1528      N2244   1.358       .  A
O1531      C1901   1.289       .  A
O1531     Cu1539   2.085       .  S
O1532      C1902   1.281       .  A
O1532     Cu1539   2.040       .  S
O1533      C2263   1.274       .  A
O1533     Cu1539   2.012       .  S
O1534      C1544   1.278       .  A
O1534     Cu1899   1.992       .  S
O1535      C2264   1.277   1_545  A
O1535     Cu1540   2.011       .  S
O1536      C1543   1.282       .  A
O1536     Cu1900   1.999   1_554  S
O1537      C2262   1.275   1_545  A
O1537     Cu1540   1.991       .  S
O1538      C2261   1.279   1_545  A
O1538     Cu1540   2.045       .  S
Cu1539     O1894   1.992   1_554  S
Cu1539    Cu2620   2.370   1_554  S
Cu1540     O1896   1.999       .  S
Cu1540    Cu2619   2.370   1_545  S
C1541      O1891   1.289       .  A
C1541      O2258   1.279       .  A
C1541      C1558   1.510       .  S
C1542      O1892   1.281       .  A
C1542      O2257   1.275       .  A
C1542      N2424   1.435       .  S
C1543      O2253   1.274   1_545  A
C1543      C1571   1.502       .  S
C1544      O2255   1.277       .  A
C1544      C1559   1.497       .  S
O1545      C1555   1.278       .  A
O1545     Cu1913   1.991   1_554  S
O1546      C2276   1.274   1_545  A
O1546     Cu1553   2.012       .  S
O1547      C1557   1.281       .  A
O1547     Cu1553   2.039       .  S
O1548      C2278   1.289       .  A
O1548     Cu1553   2.085       .  S
O1549      C1918   1.279   1_554  A
O1549     Cu1554   2.044       .  S
O1550      C2637   1.275   1_554  A
O1550     Cu1554   1.991       .  S
O1551      C1556   1.282       .  A
O1551     Cu1914   2.000       .  S
O1552      C2275   1.278       .  A
O1552     Cu1554   2.012       .  S
Cu1553     O1905   1.992       .  S
Cu1553    Cu2634   2.370   1_545  S
Cu1554     O1911   2.000   1_554  S
Cu1554    Cu2633   2.370   1_554  S
C1555      O2272   1.278   1_545  A
C1556      O2266   1.274       .  A
C1557      O2630   1.275   1_545  A
C1557      N1794   1.435   1_545  S
C1558      O2268   1.289       .  A
C1558      O1909   1.279       .  A
C1559      C1560   1.516       .  S
C1559      C1565   1.517       .  S
C1559      C1563   1.506       .  S
C1560      H1567   1.078       .  S
C1560      C1561   1.361       .  D
C1561      C1562   1.544       .  S
C1562      C1566   1.573       .  S
C1562      C1564   1.571       .  S
C1562      H1568   1.108       .  S
C1563      H1569   1.077       .  S
C1563      C1564   1.379       .  D
C1564      C1592   1.523       .  S
C1565      H1570   1.087       .  S
C1565      C1566   1.368       .  D
C1566      C1584   1.479       .  S
C1571      C1572   1.515       .  S
C1571      C1577   1.531       .  S
C1571      C1575   1.510       .  S
C1572      H1579   1.078       .  S
C1572      C1573   1.362       .  D
C1573      C1574   1.540       .  S
C1574      C1578   1.558       .  S
C1574      C1576   1.555       .  S
C1574      H1580   1.103       .  S
C1575      H1581   1.080       .  S
C1575      C1576   1.369       .  D
C1576      C1604   1.496       .  S
C1577      H1582   1.085   1_545  S
C1577      C1578   1.379       .  D
C1578      C1587   1.488       .  S
N1583      C1736   1.432       .  S
N1583      C2307   1.358       .  A
N1583      C1584   1.358       .  A
C1584      C1585   1.380       .  A
C1585      C2306   1.371       .  A
C1585      H1588   1.082       .  S
C1586      C2305   1.371       .  A
C1586      C1587   1.382       .  A
C1586      H1589   1.081       .  S
C1587      N2303   1.358   1_545  A
C1590      C1591   1.502       .  S
C1590      C1596   1.515       .  S
C1590      C1594   1.521       .  S
C1591      H1598   1.077       .  S
C1591      C1592   1.378       .  D
C1592      C1593   1.576       .  S
C1593      C1597   1.566       .  S
C1593      C1595   1.537       .  S
C1593      H1599   1.108       .  S
C1594      H1600   1.082       .  S
C1594      C1595   1.363       .  D
C1596      H1601   1.087       .  S
C1596      C1597   1.364       .  D
C1597      C1618   1.474       .  S
C1602      C1603   1.518       .  S
C1602      C1608   1.534       .  S
C1602      C1606   1.514       .  S
C1603      H1610   1.080       .  S
C1603      C1604   1.372       .  D
C1604      C1605   1.546       .  S
C1605      C1609   1.563       .  S
C1605      C1607   1.540       .  S
C1605      H1611   1.104       .  S
C1606      H1612   1.081       .  S
C1606      C1607   1.359       .  D
C1608      H1613   1.085       .  S
C1608      C1609   1.381       .  D
C1609      C1615   1.492       .  S
N1614      C1647   1.431       .  S
N1614      C1618   1.351       .  A
N1614      C1615   1.358       .  A
C1615      C1616   1.384       .  A
C1616      C1617   1.375       .  A
C1616      H1619   1.081       .  S
C1617      C1618   1.379       .  A
C1617      H1620   1.082       .  S
O1621      C1631   1.280       .  A
O1621     Cu1629   2.014       .  S
O1622     Cu1629   2.058       .  S
O1623      C1633   1.276       .  A
O1623     Cu1629   1.986       .  S
O1624      C1634   1.276       .  A
O1624     Cu1629   2.030       .  S
O1625      C1634   1.283       .  A
O1625     Cu1630   2.009       .  S
O1626      C1633   1.276       .  A
O1626     Cu1630   1.996       .  S
O1627     Cu1630   2.051       .  S
O1628      C1631   1.274       .  A
O1628     Cu1630   2.003       .  S
Cu1629    Cu1630   2.371       .  S
C1632      C1648   1.502   1_455  S
C1633      C1739   1.490       .  S
C1634      C1751   1.513       .  S
O1635      C1645   1.283       .  A
O1635     Cu1643   2.009       .  S
O1636      C1646   1.277       .  A
O1636     Cu1643   1.997       .  S
O1637      C1647   1.274       .  A
O1637     Cu1643   2.003       .  S
O1638      C1648   1.281       .  A
O1638     Cu1643   2.050       .  S
O1639      C1648   1.284       .  A
O1639     Cu1644   2.058       .  S
O1640      C1647   1.280       .  A
O1640     Cu1644   2.014       .  S
O1641      C1646   1.276       .  A
O1641     Cu1644   1.986       .  S
O1642      C1645   1.276       .  A
O1642     Cu1644   2.029       .  S
Cu1643    Cu1644   2.372       .  S
C1645      C1649   1.513       .  S
C1646      C1661   1.490       .  S
C1649      C1650   1.513       .  S
C1649      C1655   1.536       .  S
C1649      C1653   1.511       .  S
C1650      H1657   1.078       .  S
C1650      C1651   1.372       .  D
C1651      C1652   1.553       .  S
C1651      C1685   1.506       .  S
C1652      C1656   1.563       .  S
C1652      C1654   1.544       .  S
C1652      H1658   1.106       .  S
C1653      H1659   1.081       .  S
C1653      C1654   1.359       .  D
C1655      H1660   1.085       .  S
C1655      C1656   1.384       .  D
C1656      C1677   1.493       .  S
C1661      C1662   1.508       .  S
C1661      C1667   1.515       .  S
C1661      C1665   1.523       .  S
C1662      H1669   1.079       .  S
C1662      C1663   1.379       .  D
C1663      C1664   1.571       .  S
C1663      C1697   1.512       .  S
C1664      C1668   1.565       .  S
C1664      C1666   1.536       .  S
C1664      H1670   1.107       .  S
C1665      H1671   1.082       .  S
C1665      C1666   1.363       .  D
C1667      H1672   1.087       .  S
C1667      C1668   1.361       .  D
C1668      C1674   1.474       .  S
N1673      C2037   1.358   1_554  A
N1673      C1674   1.354       .  A
C1674      C1675   1.379       .  A
C1675      C2036   1.375       .  A
C1675      H1678   1.082       .  S
C1676      C2035   1.375       .  A
C1676      C1677   1.383       .  A
C1676      H1679   1.080       .  S
C1677      N2033   1.358       .  A
C1680      C1738   1.494       .  S
C1680      C1681   1.521       .  S
C1680      C1686   1.521       .  S
C1680      C1684   1.503       .  S
C1681      H1688   1.081       .  S
C1681      C1682   1.365       .  D
C1682      C1683   1.537       .  S
C1683      C1687   1.563       .  S
C1683      C1685   1.567       .  S
C1683      H1689   1.107       .  S
C1684      H1690   1.078       .  S
C1684      C1685   1.377       .  D
C1686      H1691   1.087       .  S
C1686      C1687   1.365       .  D
C1687      C1708   1.476       .  S
C1692      C1737   1.506       .  S
C1692      C1693   1.511       .  S
C1692      C1698   1.527       .  S
C1692      C1696   1.517       .  S
C1693      H1700   1.081       .  S
C1693      C1694   1.358       .  D
C1694      C1695   1.545       .  S
C1695      C1699   1.566       .  S
C1695      C1697   1.557       .  S
C1695      H1701   1.106       .  S
C1696      H1702   1.079       .  S
C1696      C1697   1.375       .  D
C1698      H1703   1.084   1_545  S
C1698      C1699   1.379       .  D
C1699      C1705   1.488       .  S
N1704      C2262   1.435   1_545  S
N1704      C2428   1.357   1_545  A
N1704      C2065   1.360       .  A
C1705      N2064   1.360   1_554  A
C1705      C1706   1.382   1_554  A
C1706      C2787   1.372       .  A
C1706      H1709   1.080       .  S
C1707      C2786   1.372       .  A
C1707      C1708   1.380       .  A
C1707      H1710   1.082       .  S
C1708      N2424   1.357       .  A
O1711     Cu1719   2.045       .  S
O1712      C1722   1.276       .  A
O1712     Cu1719   1.987       .  S
O1713      C1723   1.280       .  A
O1713     Cu1719   1.994       .  S
O1714      C2444   1.274       .  A
O1714     Cu1719   1.993       .  S
O1715      C1724   1.279       .  A
O1715     Cu1720   1.999       .  S
O1716      C2443   1.278   1_545  A
O1716     Cu1720   2.031       .  S
O1717      C2442   1.279       .  A
O1717     Cu1720   2.031       .  S
O1718     Cu1720   2.065       .  S
Cu1719    Cu2440   2.371       .  S
Cu1720    Cu2439   2.371   1_545  S
C1721      C1735   1.503       .  S
C1722      O2437   1.279       .  A
C1723      O2436   1.278       .  A
C1723      C1770   1.506       .  S
C1724      O2434   1.274   1_545  A
C1724      C1782   1.494       .  S
O1725      C1735   1.286       .  A
O1725     Cu1733   2.066       .  S
O1726      C1736   1.279       .  A
O1726     Cu1733   2.031       .  S
O1727      C2457   1.278       .  A
O1727     Cu1733   2.030       .  S
O1728      C1738   1.279       .  A
O1728     Cu1733   1.998       .  S
O1729      C2458   1.274   1_545  A
O1729     Cu1734   1.993       .  S
O1730      C1737   1.280       .  A
O1730     Cu1734   1.994       .  S
O1731      C2456   1.276   1_545  A
O1731     Cu1734   1.986       .  S
O1732      C2455   1.280   1_545  A
O1732     Cu1734   2.044       .  S
Cu1733    Cu2454   2.371       .  S
Cu1734    Cu2453   2.371   1_545  S
C1735      O2452   1.280       .  A
C1736      O2451   1.276       .  A
C1737      O2447   1.278   1_545  A
C1738      O2449   1.274       .  A
C1739      C1740   1.522       .  S
C1739      C1745   1.516       .  S
C1739      C1743   1.508       .  S
C1740      C1741   1.363       .  D
C1741      C1742   1.536       .  S
C1742      C1746   1.566       .  S
C1742      C1744   1.571       .  S
C1742      H1748   1.107       .  S
C1743      H1749   1.079       .  S
C1743      C1744   1.379       .  D
C1744      C1772   1.512       .  S
C1745      H1750   1.087       .  S
C1745      C1746   1.361       .  D
C1746      C1764   1.475       .  S
C1751      C1752   1.511       .  S
C1751      C1757   1.536       .  S
C1751      C1755   1.513       .  S
C1752      C1753   1.359       .  D
C1753      C1754   1.545       .  S
C1754      C1758   1.563       .  S
C1754      C1756   1.553       .  S
C1754      H1760   1.106       .  S
C1755      H1761   1.078       .  S
C1755      C1756   1.372       .  D
C1756      C1784   1.507       .  S
C1757      H1762   1.085       .  S
C1757      C1758   1.384       .  D
C1758      C1767   1.493       .  S
N1763      C1767   1.358   1_556  A
N1763      C2124   1.354       .  A
C1764      N2123   1.354       .  A
C1764      C1765   1.379       .  A
C1765      C2126   1.375       .  A
C1765      H1768   1.082       .  S
C1766      C2125   1.375       .  A
C1766      C1767   1.383   1_556  A
C1766      H1769   1.080       .  S
C1770      C1771   1.518       .  S
C1770      C1776   1.526       .  S
C1770      C1774   1.512       .  S
C1771      H1778   1.079       .  S
C1771      C1772   1.375       .  D
C1772      C1773   1.558       .  S
C1773      C1777   1.566       .  S
C1773      C1775   1.545       .  S
C1773      H1779   1.106       .  S
C1774      C1775   1.358       .  D
C1776      H1781   1.084       .  S
C1776      C1777   1.379       .  D
C1777      C1795   1.488       .  S
C1782      C1783   1.503       .  S
C1782      C1788   1.521       .  S
C1782      C1786   1.521       .  S
C1783      H1790   1.078       .  S
C1783      C1784   1.377       .  D
C1784      C1785   1.567       .  S
C1785      C1789   1.563       .  S
C1785      C1787   1.537       .  S
C1785      H1791   1.107       .  S
C1786      C1787   1.365       .  D
C1788      H1793   1.087   1_545  S
C1788      C1789   1.365       .  D
C1789      C1798   1.476       .  S
N1794      C2158   1.357   1_565  A
N1794      C2515   1.360       .  A
C1795      N2514   1.360       .  A
C1795      C1796   1.382       .  A
C1796      C2877   1.373       .  A
C1796      H1799   1.080       .  S
C1797      C2876   1.373       .  A
C1797      C1798   1.380   1_565  A
C1797      H1800   1.082       .  S
C1798      N2154   1.357   1_545  A
O1801      C1811   1.283       .  A
O1802      C1812   1.276       .  A
O1802     Cu1809   2.001       .  S
O1803     Cu1809   2.011       .  S
O1804      C1814   1.283   1_556  A
O1804     Cu1809   2.057       .  S
O1805     Cu1810   2.057       .  S
O1806      C1813   1.279       .  A
O1806     Cu1810   2.010       .  S
O1807      C1812   1.277       .  A
O1808      C1811   1.276       .  A
O1808     Cu1810   2.022       .  S
C1811      C1962   1.509       .  S
C1812      C1950   1.491       .  S
C1813      N2033   1.432       .  S
O1815      C1825   1.283       .  A
O1815     Cu1823   2.057       .  S
O1816      C1826   1.275       .  A
O1816     Cu1823   2.011       .  S
O1817      C1827   1.276       .  A
O1817     Cu1823   2.000       .  S
O1818      C1828   1.283       .  A
O1819      C1828   1.276       .  A
O1819     Cu1824   2.023       .  S
O1820      C1827   1.277       .  A
O1821     Cu1824   2.010       .  S
O1822     Cu1824   2.056       .  S
C1826      N2123   1.432       .  S
C1827      C1841   1.491       .  S
C1828      C1829   1.509       .  S
C1829      C1830   1.514       .  S
C1829      C1835   1.534       .  S
C1829      C1833   1.518       .  S
C1830      H1837   1.081       .  S
C1830      C1831   1.359       .  D
C1831      C1832   1.540       .  S
C1831      C1955   1.499       .  S
C1832      C1836   1.563       .  S
C1832      C1834   1.546       .  S
C1832      H1838   1.104       .  S
C1833      H1839   1.080       .  S
C1833      C1834   1.372       .  D
C1834      C1862   1.496       .  S
C1835      H1840   1.085       .  S
C1835      C1836   1.381       .  D
C1836      C1854   1.492       .  S
C1841      C1842   1.521       .  S
C1841      C1847   1.515       .  S
C1841      C1845   1.502       .  S
C1842      H1849   1.082       .  S
C1842      C1843   1.363       .  D
C1843      C1844   1.537       .  S
C1843      C1967   1.499       .  S
C1844      C1848   1.566       .  S
C1844      C1846   1.576       .  S
C1844      H1850   1.108       .  S
C1845      H1851   1.077       .  S
C1845      C1846   1.378       .  D
C1846      C1874   1.523       .  S
C1847      H1852   1.087       .  S
C1847      C1848   1.364       .  D
C1848      C1857   1.474       .  S
N1853      C1991   1.430       .  S
N1853      C1857   1.351       .  A
N1853      C1854   1.358       .  A
C1854      C1855   1.384       .  A
C1855      C1856   1.375       .  A
C1855      H1858   1.081       .  S
C1856      C1857   1.379       .  A
C1856      H1859   1.082       .  S
C1860      C1916   1.502       .  S
C1860      C1861   1.511       .  S
C1860      C1866   1.531       .  S
C1860      C1864   1.515       .  S
C1861      H1868   1.080       .  S
C1861      C1862   1.370       .  D
C1862      C1863   1.555       .  S
C1863      C1867   1.558       .  S
C1863      C1865   1.540       .  S
C1863      H1869   1.103       .  S
C1864      H1870   1.078       .  S
C1864      C1865   1.362       .  D
C1865      C1921   1.504       .  S
C1866      H1871   1.085       .  S
C1866      C1867   1.379       .  D
C1867      C1885   1.488       .  S
C1872      C1915   1.498       .  S
C1872      C1873   1.506       .  S
C1872      C1878   1.517       .  S
C1872      C1876   1.516       .  S
C1873      H1880   1.077       .  S
C1873      C1874   1.379       .  D
C1874      C1875   1.571       .  S
C1875      C1879   1.574       .  S
C1875      C1877   1.544       .  S
C1875      H1881   1.108       .  S
C1876      H1882   1.078       .  S
C1876      C1877   1.361       .  D
C1877      C1933   1.504       .  S
C1878      H1883   1.087   1_545  S
C1878      C1879   1.368       .  D
C1879      C1888   1.479       .  S
N1884      C2082   1.432       .  S
N1884      C2608   1.358       .  A
N1884      C1885   1.358       .  A
C1885      C1886   1.381       .  A
C1886      C2607   1.371       .  A
C1886      H1889   1.081       .  S
C1887      C2606   1.371       .  A
C1887      C1888   1.380   1_565  A
C1887      H1890   1.082       .  S
C1888      N2604   1.359       .  A
O1891     Cu1899   2.085       .  S
O1892     Cu1899   2.040       .  S
O1893      C2623   1.274       .  A
O1893     Cu1899   2.012       .  S
O1894      C1904   1.278       .  A
O1895      C2624   1.277   1_545  A
O1895     Cu1900   2.011       .  S
O1896      C1903   1.282       .  A
O1897      C2622   1.275   1_546  A
O1897     Cu1900   1.991       .  S
O1898      C2621   1.279   1_546  A
O1898     Cu1900   2.044       .  S
Cu1899    Cu2260   2.370       .  S
Cu1900    Cu2259   2.370   1_546  S
C1901      O2618   1.279   1_554  A
C1901      C1918   1.510   1_554  S
C1902      O2617   1.275   1_554  A
C1902      N2784   1.435   1_554  S
C1903      O2613   1.274   1_545  A
C1903      C1931   1.502       .  S
C1904      O2615   1.277       .  A
C1904      C1919   1.497       .  S
O1905      C1915   1.278       .  A
O1906      C2636   1.274   1_545  A
O1906     Cu1913   2.012       .  S
O1907      C1917   1.281       .  A
O1907     Cu1913   2.040       .  S
O1908      C2638   1.289       .  A
O1908     Cu1913   2.085       .  S
O1909     Cu1914   2.044       .  S
O1910      C2277   1.275       .  A
O1910     Cu1914   1.991       .  S
O1911      C1916   1.282       .  A
O1912      C2635   1.278       .  A
O1912     Cu1914   2.012       .  S
Cu1913    Cu2274   2.370   1_546  S
Cu1914    Cu2273   2.370       .  S
C1915      O2632   1.278   1_545  A
C1916      O2626   1.274       .  A
C1917      O2270   1.275   1_546  A
C1917      N2154   1.435   1_546  S
C1918      O2628   1.289       .  A
C1919      C1920   1.516       .  S
C1919      C1925   1.517       .  S
C1919      C1923   1.506       .  S
C1920      H1927   1.078       .  S
C1920      C1921   1.361       .  D
C1921      C1922   1.544       .  S
C1922      C1926   1.573       .  S
C1922      C1924   1.571       .  S
C1922      H1928   1.108       .  S
C1923      H1929   1.077       .  S
C1923      C1924   1.379       .  D
C1924      C1952   1.523       .  S
C1925      H1930   1.087       .  S
C1925      C1926   1.368       .  D
C1926      C1944   1.479       .  S
C1931      C1932   1.515       .  S
C1931      C1937   1.531       .  S
C1931      C1935   1.510       .  S
C1932      H1939   1.078       .  S
C1932      C1933   1.362       .  D
C1933      C1934   1.540       .  S
C1934      C1938   1.558       .  S
C1934      C1936   1.555       .  S
C1934      H1940   1.103       .  S
C1935      H1941   1.080       .  S
C1935      C1936   1.369       .  D
C1936      C1964   1.496       .  S
C1937      H1942   1.085   1_545  S
C1937      C1938   1.379       .  D
C1938      C1947   1.488       .  S
N1943      C2096   1.432       .  S
N1943      C2667   1.358       .  A
N1943      C1944   1.358       .  A
C1944      C1945   1.380       .  A
C1945      C2666   1.371       .  A
C1945      H1948   1.082       .  S
C1946      C2665   1.371       .  A
C1946      C1947   1.382       .  A
C1946      H1949   1.081       .  S
C1947      N2663   1.358   1_545  A
C1950      C1951   1.502       .  S
C1950      C1956   1.515       .  S
C1950      C1954   1.521       .  S
C1951      H1958   1.077       .  S
C1951      C1952   1.378       .  D
C1952      C1953   1.576       .  S
C1953      C1957   1.566       .  S
C1953      C1955   1.537       .  S
C1953      H1959   1.108       .  S
C1954      H1960   1.082       .  S
C1954      C1955   1.363       .  D
C1956      H1961   1.087       .  S
C1956      C1957   1.364       .  D
C1957      C1978   1.474       .  S
C1962      C1963   1.518       .  S
C1962      C1968   1.534       .  S
C1962      C1966   1.514       .  S
C1963      H1970   1.080       .  S
C1963      C1964   1.372       .  D
C1964      C1965   1.546       .  S
C1965      C1969   1.563       .  S
C1965      C1967   1.540       .  S
C1965      H1971   1.104       .  S
C1966      H1972   1.081       .  S
C1966      C1967   1.358       .  D
C1968      H1973   1.085       .  S
C1968      C1969   1.381       .  D
C1969      C1975   1.492       .  S
N1974      C2007   1.431       .  S
N1974      C1978   1.351       .  A
N1974      C1975   1.358       .  A
C1975      C1976   1.384       .  A
C1976      C1977   1.375       .  A
C1976      H1979   1.081       .  S
C1977      C1978   1.379       .  A
C1977      H1980   1.082       .  S
O1981      C1991   1.280       .  A
O1981     Cu1989   2.014       .  S
O1982     Cu1989   2.058       .  S
O1983      C1993   1.276       .  A
O1983     Cu1989   1.987       .  S
O1984      C1994   1.276       .  A
O1984     Cu1989   2.030       .  S
O1985      C1994   1.283       .  A
O1985     Cu1990   2.009       .  S
O1986      C1993   1.276       .  A
O1986     Cu1990   1.996       .  S
O1987     Cu1990   2.050       .  S
O1988      C1991   1.274       .  A
O1988     Cu1990   2.003       .  S
Cu1989    Cu1990   2.371       .  S
C1992      C2008   1.502   1_455  S
C1993      C2099   1.490       .  S
C1994      C2111   1.513       .  S
O1995      C2005   1.283       .  A
O1995     Cu2003   2.009       .  S
O1996      C2006   1.277       .  A
O1996     Cu2003   1.997       .  S
O1997      C2007   1.274       .  A
O1997     Cu2003   2.003       .  S
O1998      C2008   1.281       .  A
O1998     Cu2003   2.050       .  S
O1999      C2008   1.284       .  A
O1999     Cu2004   2.058       .  S
O2000      C2007   1.280       .  A
O2000     Cu2004   2.014       .  S
O2001      C2006   1.276       .  A
O2001     Cu2004   1.986       .  S
O2002      C2005   1.276       .  A
O2002     Cu2004   2.029       .  S
Cu2003    Cu2004   2.372       .  S
C2005      C2009   1.513       .  S
C2006      C2021   1.490       .  S
C2009      C2010   1.513       .  S
C2009      C2015   1.536       .  S
C2009      C2013   1.511       .  S
C2010      H2017   1.078       .  S
C2010      C2011   1.372       .  D
C2011      C2012   1.553       .  S
C2011      C2045   1.506       .  S
C2012      C2016   1.563       .  S
C2012      C2014   1.544       .  S
C2012      H2018   1.106       .  S
C2013      H2019   1.081       .  S
C2013      C2014   1.359       .  D
C2015      H2020   1.085       .  S
C2015      C2016   1.384       .  D
C2016      C2037   1.493       .  S
C2021      C2022   1.508       .  S
C2021      C2027   1.515       .  S
C2021      C2025   1.522       .  S
C2022      H2029   1.079       .  S
C2022      C2023   1.379       .  D
C2023      C2024   1.571       .  S
C2023      C2057   1.512       .  S
C2024      C2028   1.566       .  S
C2024      C2026   1.536       .  S
C2024      H2030   1.107       .  S
C2025      H2031   1.082       .  S
C2025      C2026   1.363       .  D
C2027      H2032   1.087       .  S
C2027      C2028   1.361       .  D
C2028      C2034   1.474       .  S
N2033      C2034   1.354       .  A
C2034      C2035   1.379       .  A
C2035      H2038   1.082       .  S
C2036      C2037   1.383   1_554  A
C2036      H2039   1.080       .  S
C2040      C2098   1.494       .  S
C2040      C2041   1.521       .  S
C2040      C2046   1.521       .  S
C2040      C2044   1.503       .  S
C2041      H2048   1.081       .  S
C2041      C2042   1.365       .  D
C2042      C2043   1.537       .  S
C2043      C2047   1.563       .  S
C2043      C2045   1.567       .  S
C2043      H2049   1.107       .  S
C2044      H2050   1.078       .  S
C2044      C2045   1.377       .  D
C2046      H2051   1.087       .  S
C2046      C2047   1.365       .  D
C2047      C2068   1.476       .  S
C2052      C2097   1.506       .  S
C2052      C2053   1.511       .  S
C2052      C2058   1.526       .  S
C2052      C2056   1.518       .  S
C2053      H2060   1.081       .  S
C2053      C2054   1.358       .  D
C2054      C2055   1.545       .  S
C2055      C2059   1.566       .  S
C2055      C2057   1.557       .  S
C2055      H2061   1.106       .  S
C2056      H2062   1.079       .  S
C2056      C2057   1.375       .  D
C2058      H2063   1.084   1_545  S
C2058      C2059   1.379       .  D
C2059      C2065   1.488       .  S
N2064      C2622   1.435   1_546  S
N2064      C2788   1.357   1_545  A
C2065      C2066   1.382       .  A
C2066      C2427   1.372       .  A
C2066      H2069   1.080       .  S
C2067      C2426   1.372       .  A
C2067      C2068   1.380       .  A
C2067      H2070   1.082       .  S
C2068      N2784   1.357       .  A
O2071     Cu2079   2.045       .  S
O2072      C2082   1.276       .  A
O2072     Cu2079   1.987       .  S
O2073      C2083   1.280       .  A
O2073     Cu2079   1.994       .  S
O2074      C2804   1.274       .  A
O2074     Cu2079   1.993       .  S
O2075      C2084   1.279       .  A
O2075     Cu2080   1.998       .  S
O2076      C2803   1.278   1_545  A
O2076     Cu2080   2.031       .  S
O2077      C2802   1.279       .  A
O2077     Cu2080   2.031       .  S
O2078     Cu2080   2.065       .  S
Cu2079    Cu2800   2.371       .  S
Cu2080    Cu2799   2.371   1_545  S
C2081      C2095   1.503       .  S
C2082      O2797   1.279       .  A
C2083      O2796   1.278       .  A
C2083      C2130   1.506       .  S
C2084      O2794   1.274   1_545  A
C2084      C2142   1.494       .  S
O2085      C2095   1.286       .  A
O2085     Cu2093   2.066       .  S
O2086      C2096   1.279       .  A
O2086     Cu2093   2.031       .  S
O2087      C2817   1.278       .  A
O2087     Cu2093   2.030       .  S
O2088      C2098   1.279       .  A
O2088     Cu2093   1.998       .  S
O2089      C2818   1.274   1_545  A
O2089     Cu2094   1.993       .  S
O2090      C2097   1.280       .  A
O2090     Cu2094   1.994       .  S
O2091      C2816   1.276   1_545  A
O2091     Cu2094   1.986       .  S
O2092      C2815   1.280   1_545  A
O2092     Cu2094   2.044       .  S
Cu2093    Cu2814   2.371       .  S
Cu2094    Cu2813   2.371   1_545  S
C2095      O2812   1.280       .  A
C2096      O2811   1.276       .  A
C2097      O2807   1.278   1_545  A
C2098      O2809   1.274       .  A
C2099      C2100   1.522       .  S
C2099      C2105   1.516       .  S
C2099      C2103   1.508       .  S
C2100      C2101   1.363       .  D
C2101      C2102   1.536       .  S
C2102      C2106   1.566       .  S
C2102      C2104   1.571       .  S
C2102      H2108   1.107       .  S
C2103      H2109   1.079       .  S
C2103      C2104   1.379       .  D
C2104      C2132   1.512       .  S
C2105      H2110   1.087       .  S
C2105      C2106   1.361       .  D
C2106      C2124   1.475       .  S
C2111      C2112   1.511       .  S
C2111      C2117   1.536       .  S
C2111      C2115   1.513       .  S
C2112      C2113   1.359       .  D
C2113      C2114   1.545       .  S
C2114      C2118   1.563       .  S
C2114      C2116   1.553       .  S
C2114      H2120   1.106       .  S
C2115      H2121   1.078       .  S
C2115      C2116   1.372       .  D
C2116      C2144   1.507       .  S
C2117      H2122   1.085       .  S
C2117      C2118   1.384       .  D
C2118      C2127   1.493       .  S
N2123      C2127   1.358       .  A
C2124      C2125   1.379       .  A
C2125      H2128   1.082       .  S
C2126      C2127   1.383       .  A
C2126      H2129   1.080       .  S
C2130      C2131   1.518       .  S
C2130      C2136   1.526       .  S
C2130      C2134   1.511       .  S
C2131      H2138   1.079       .  S
C2131      C2132   1.375       .  D
C2132      C2133   1.558       .  S
C2133      C2137   1.566       .  S
C2133      C2135   1.545       .  S
C2133      H2139   1.106       .  S
C2134      C2135   1.358       .  D
C2136      H2141   1.084       .  S
C2136      C2137   1.379       .  D
C2137      C2155   1.488       .  S
C2142      C2143   1.503       .  S
C2142      C2148   1.521       .  S
C2142      C2146   1.521       .  S
C2143      H2150   1.078       .  S
C2143      C2144   1.377       .  D
C2144      C2145   1.567       .  S
C2145      C2149   1.563       .  S
C2145      C2147   1.537       .  S
C2145      H2151   1.107       .  S
C2146      C2147   1.364       .  D
C2148      H2153   1.087   1_545  S
C2148      C2149   1.365       .  D
C2149      C2158   1.476       .  S
N2154      C2875   1.360   1_554  A
C2155      N2874   1.360   1_556  A
C2155      C2156   1.382   1_556  A
C2156      C2517   1.373       .  A
C2156      H2159   1.080       .  S
C2157      C2516   1.373       .  A
C2157      C2158   1.380   1_565  A
C2157      H2160   1.082       .  S
O2161      C2171   1.283       .  A
O2161     Cu2529   2.008   1_554  S
O2162      C2172   1.276       .  A
O2162     Cu2169   2.001       .  S
O2163      C2533   1.275       .  A
O2163     Cu2169   2.011       .  S
O2164      C2174   1.283       .  A
O2164     Cu2169   2.057       .  S
O2165      C2534   1.284       .  A
O2165     Cu2170   2.057       .  S
O2166      C2173   1.279       .  A
O2166     Cu2170   2.010       .  S
O2167      C2172   1.277       .  A
O2167     Cu2530   1.984       .  S
O2168      C2171   1.276       .  A
O2168     Cu2170   2.022       .  S
Cu2169     O2521   2.008       .  S
Cu2169    Cu2530   2.371       .  S
Cu2170     O2527   1.983   1_554  S
Cu2170    Cu2529   2.371   1_554  S
C2171      C2322   1.509       .  S
C2172      C2310   1.491       .  S
C2173      O2523   1.275   1_554  A
C2173      N2393   1.432       .  S
C2174      O2525   1.284       .  A
C2174      C2545   1.504       .  S
O2175      C2185   1.283   1_554  A
O2175     Cu2183   2.057       .  S
O2176      C2186   1.275   1_554  A
O2176     Cu2183   2.011       .  S
O2177      C2187   1.276       .  A
O2177     Cu2183   2.000       .  S
O2178      C2188   1.283       .  A
O2178     Cu2543   2.007       .  S
O2179      C2188   1.276       .  A
O2179     Cu2184   2.023       .  S
O2180      C2187   1.277       .  A
O2180     Cu2544   1.984   1_554  S
O2181      C2546   1.279       .  A
O2181     Cu2184   2.010       .  S
O2182      C2545   1.284       .  A
O2182     Cu2184   2.056       .  S
Cu2183     O2538   2.007   1_554  S
Cu2183    Cu2544   2.371   1_554  S
Cu2184     O2540   1.984       .  S
Cu2184    Cu2543   2.371       .  S
C2185      O2542   1.284       .  A
C2185      C2534   1.504   1_556  S
C2186      O2541   1.279       .  A
C2186      N2483   1.432       .  S
C2187      C2201   1.491       .  S
C2188      C2189   1.509       .  S
C2189      C2190   1.514       .  S
C2189      C2195   1.534       .  S
C2189      C2193   1.518       .  S
C2190      H2197   1.081       .  S
C2190      C2191   1.359       .  D
C2191      C2192   1.540       .  S
C2191      C2315   1.499       .  S
C2192      C2196   1.563       .  S
C2192      C2194   1.546       .  S
C2192      H2198   1.104       .  S
C2193      H2199   1.080       .  S
C2193      C2194   1.372       .  D
C2194      C2222   1.496       .  S
C2195      H2200   1.085       .  S
C2195      C2196   1.381       .  D
C2196      C2214   1.492       .  S
C2201      C2202   1.521       .  S
C2201      C2207   1.515       .  S
C2201      C2205   1.502       .  S
C2202      H2209   1.082       .  S
C2202      C2203   1.363       .  D
C2203      C2204   1.537       .  S
C2203      C2327   1.499       .  S
C2204      C2208   1.566       .  S
C2204      C2206   1.576       .  S
C2204      H2210   1.108       .  S
C2205      H2211   1.077       .  S
C2205      C2206   1.378       .  D
C2206      C2234   1.523       .  S
C2207      H2212   1.087       .  S
C2207      C2208   1.364       .  D
C2208      C2217   1.474       .  S
N2213      C2351   1.430       .  S
N2213      C2217   1.351       .  A
N2213      C2214   1.358       .  A
C2214      C2215   1.384       .  A
C2215      C2216   1.375       .  A
C2215      H2218   1.081       .  S
C2216      C2217   1.379       .  A
C2216      H2219   1.082       .  S
C2220      C2276   1.502       .  S
C2220      C2221   1.511       .  S
C2220      C2226   1.531       .  S
C2220      C2224   1.515       .  S
C2221      H2228   1.080       .  S
C2221      C2222   1.370       .  D
C2222      C2223   1.555       .  S
C2223      C2227   1.558       .  S
C2223      C2225   1.540       .  S
C2223      H2229   1.103       .  S
C2224      H2230   1.078       .  S
C2224      C2225   1.362       .  D
C2225      C2281   1.504       .  S
C2226      H2231   1.085   1_565  S
C2226      C2227   1.379       .  D
C2227      C2245   1.488       .  S
C2232      C2275   1.498       .  S
C2232      C2233   1.506       .  S
C2232      C2238   1.517       .  S
C2232      C2236   1.516       .  S
C2233      H2240   1.077       .  S
C2233      C2234   1.379       .  D
C2234      C2235   1.571       .  S
C2235      C2239   1.574       .  S
C2235      C2237   1.544       .  S
C2235      H2241   1.108       .  S
C2236      H2242   1.078       .  S
C2236      C2237   1.361       .  D
C2237      C2293   1.504       .  S
C2238      H2243   1.087       .  S
C2238      C2239   1.368       .  D
C2239      C2248   1.479       .  S
N2244      C2442   1.432       .  S
N2244      C2245   1.358   1_545  A
C2245      C2246   1.381       .  A
C2246      H2249   1.081       .  S
C2247      C2248   1.380       .  A
C2247      H2250   1.082       .  S
O2251      C2621   1.289       .  A
O2251     Cu2259   2.085       .  S
O2252      C2622   1.281       .  A
O2252     Cu2259   2.039       .  S
O2253     Cu2259   2.013       .  S
O2254      C2264   1.278       .  A
O2254     Cu2619   1.992       .  S
O2255     Cu2260   2.011       .  S
O2256      C2263   1.282       .  A
O2256     Cu2620   1.999   1_554  S
O2257     Cu2260   1.991       .  S
O2258     Cu2260   2.045       .  S
Cu2259     O2614   1.992   1_554  S
Cu2260     O2616   1.999       .  S
C2261      O2611   1.289       .  A
C2261      C2278   1.510   1_565  S
C2262      O2612   1.281       .  A
C2263      C2291   1.502       .  S
C2264      C2279   1.497       .  S
O2265      C2275   1.278       .  A
O2265     Cu2633   1.992   1_554  S
O2266     Cu2273   2.012       .  S
O2267      C2277   1.281       .  A
O2267     Cu2273   2.039       .  S
O2268     Cu2273   2.085       .  S
O2269      C2638   1.279   1_564  A
O2269     Cu2274   2.044       .  S
O2270     Cu2274   1.991       .  S
O2271      C2276   1.282       .  A
O2271     Cu2634   2.000       .  S
O2272     Cu2274   2.012       .  S
Cu2273     O2625   1.992       .  S
Cu2274     O2631   2.000   1_554  S
C2277      N2514   1.435       .  S
C2278      O2629   1.279   1_545  A
C2279      C2280   1.516       .  S
C2279      C2285   1.517       .  S
C2279      C2283   1.506       .  S
C2280      H2287   1.078       .  S
C2280      C2281   1.361       .  D
C2281      C2282   1.544       .  S
C2282      C2286   1.573       .  S
C2282      C2284   1.571       .  S
C2282      H2288   1.108       .  S
C2283      H2289   1.077       .  S
C2283      C2284   1.379       .  D
C2284      C2312   1.523       .  S
C2285      H2290   1.087   1_565  S
C2285      C2286   1.368       .  D
C2286      C2304   1.479       .  S
C2291      C2292   1.515       .  S
C2291      C2297   1.531       .  S
C2291      C2295   1.510       .  S
C2292      H2299   1.078       .  S
C2292      C2293   1.362       .  D
C2293      C2294   1.540       .  S
C2294      C2298   1.558       .  S
C2294      C2296   1.555       .  S
C2294      H2300   1.103       .  S
C2295      H2301   1.080       .  S
C2295      C2296   1.369       .  D
C2296      C2324   1.496       .  S
C2297      H2302   1.085       .  S
C2297      C2298   1.379       .  D
C2298      C2307   1.488       .  S
N2303      C2456   1.432       .  S
N2303      C2304   1.358       .  A
C2304      C2305   1.380   1_565  A
C2305      H2308   1.082       .  S
C2306      C2307   1.382       .  A
C2306      H2309   1.081       .  S
C2310      C2311   1.502       .  S
C2310      C2316   1.515       .  S
C2310      C2314   1.521       .  S
C2311      H2318   1.077       .  S
C2311      C2312   1.378       .  D
C2312      C2313   1.576       .  S
C2313      C2317   1.566       .  S
C2313      C2315   1.537       .  S
C2313      H2319   1.108       .  S
C2314      H2320   1.082       .  S
C2314      C2315   1.363       .  D
C2316      H2321   1.087       .  S
C2316      C2317   1.364       .  D
C2317      C2338   1.474       .  S
C2322      C2323   1.518       .  S
C2322      C2328   1.534       .  S
C2322      C2326   1.514       .  S
C2323      H2330   1.080       .  S
C2323      C2324   1.372       .  D
C2324      C2325   1.546       .  S
C2325      C2329   1.563       .  S
C2325      C2327   1.540       .  S
C2325      H2331   1.104       .  S
C2326      H2332   1.081       .  S
C2326      C2327   1.359       .  D
C2328      H2333   1.085       .  S
C2328      C2329   1.381       .  D
C2329      C2335   1.492       .  S
N2334      C2367   1.431       .  S
N2334      C2338   1.351       .  A
N2334      C2335   1.358       .  A
C2335      C2336   1.384       .  A
C2336      C2337   1.375       .  A
C2336      H2339   1.081       .  S
C2337      C2338   1.379       .  A
C2337      H2340   1.082       .  S
O2341      C2351   1.280       .  A
O2341     Cu2349   2.014       .  S
O2342     Cu2349   2.058       .  S
O2343      C2353   1.276       .  A
O2343     Cu2349   1.986       .  S
O2344      C2354   1.276       .  A
O2344     Cu2349   2.030       .  S
O2345      C2354   1.283       .  A
O2345     Cu2350   2.009       .  S
O2346      C2353   1.276       .  A
O2346     Cu2350   1.996       .  S
O2347     Cu2350   2.051       .  S
O2348      C2351   1.274       .  A
O2348     Cu2350   2.003       .  S
Cu2349    Cu2350   2.371       .  S
C2352      C2368   1.502   1_455  S
C2353      C2459   1.490       .  S
C2354      C2471   1.513       .  S
O2355      C2365   1.283       .  A
O2355     Cu2363   2.009       .  S
O2356      C2366   1.277       .  A
O2356     Cu2363   1.997       .  S
O2357      C2367   1.274       .  A
O2357     Cu2363   2.003       .  S
O2358      C2368   1.281       .  A
O2358     Cu2363   2.050       .  S
O2359      C2368   1.284       .  A
O2359     Cu2364   2.058       .  S
O2360      C2367   1.280       .  A
O2360     Cu2364   2.014       .  S
O2361      C2366   1.276       .  A
O2361     Cu2364   1.986       .  S
O2362      C2365   1.276       .  A
O2362     Cu2364   2.029       .  S
Cu2363    Cu2364   2.372       .  S
C2365      C2369   1.513       .  S
C2366      C2381   1.490       .  S
C2369      C2370   1.513       .  S
C2369      C2375   1.536       .  S
C2369      C2373   1.511       .  S
C2370      H2377   1.078       .  S
C2370      C2371   1.372       .  D
C2371      C2372   1.553       .  S
C2371      C2405   1.506       .  S
C2372      C2376   1.563       .  S
C2372      C2374   1.544       .  S
C2372      H2378   1.106       .  S
C2373      H2379   1.081       .  S
C2373      C2374   1.359       .  D
C2375      H2380   1.085       .  S
C2375      C2376   1.384       .  D
C2376      C2397   1.493       .  S
C2381      C2382   1.508       .  S
C2381      C2387   1.515       .  S
C2381      C2385   1.522       .  S
C2382      H2389   1.079       .  S
C2382      C2383   1.379       .  D
C2383      C2384   1.571       .  S
C2383      C2417   1.512       .  S
C2384      C2388   1.566       .  S
C2384      C2386   1.536       .  S
C2384      H2390   1.107       .  S
C2385      H2391   1.082       .  S
C2385      C2386   1.363       .  D
C2387      H2392   1.087       .  S
C2387      C2388   1.361       .  D
C2388      C2394   1.474       .  S
N2393      C2757   1.358   1_554  A
N2393      C2394   1.354       .  A
C2394      C2395   1.379       .  A
C2395      C2756   1.375       .  A
C2395      H2398   1.082       .  S
C2396      C2755   1.375       .  A
C2396      C2397   1.383       .  A
C2396      H2399   1.080       .  S
C2397      N2753   1.358       .  A
C2400      C2458   1.494       .  S
C2400      C2401   1.521       .  S
C2400      C2406   1.521       .  S
C2400      C2404   1.503       .  S
C2401      H2408   1.081       .  S
C2401      C2402   1.365       .  D
C2402      C2403   1.537       .  S
C2403      C2407   1.563       .  S
C2403      C2405   1.567       .  S
C2403      H2409   1.107       .  S
C2404      H2410   1.078       .  S
C2404      C2405   1.377       .  D
C2406      H2411   1.087   1_565  S
C2406      C2407   1.365       .  D
C2407      C2428   1.476       .  S
C2412      C2457   1.506       .  S
C2412      C2413   1.511       .  S
C2412      C2418   1.526       .  S
C2412      C2416   1.518       .  S
C2413      H2420   1.081       .  S
C2413      C2414   1.358       .  D
C2414      C2415   1.545       .  S
C2415      C2419   1.566       .  S
C2415      C2417   1.557       .  S
C2415      H2421   1.106       .  S
C2416      H2422   1.079       .  S
C2416      C2417   1.375       .  D
C2418      H2423   1.084       .  S
C2418      C2419   1.379       .  D
C2419      C2425   1.488       .  S
N2424      C2785   1.360       .  A
C2425      N2784   1.360   1_554  A
C2425      C2426   1.382   1_554  A
C2426      H2429   1.080       .  S
C2427      C2428   1.380   1_545  A
C2427      H2430   1.082       .  S
O2431     Cu2439   2.045       .  S
O2432      C2442   1.276   1_565  A
O2432     Cu2439   1.986       .  S
O2433      C2443   1.280       .  A
O2433     Cu2439   1.994       .  S
O2434     Cu2439   1.993       .  S
O2435      C2444   1.279       .  A
O2435     Cu2440   1.998       .  S
O2436     Cu2440   2.031       .  S
O2437     Cu2440   2.031       .  S
O2438     Cu2440   2.065       .  S
C2441      C2455   1.503   1_455  S
C2443      C2490   1.506       .  S
C2444      C2502   1.494       .  S
O2445      C2455   1.286       .  A
O2445     Cu2453   2.066       .  S
O2446      C2456   1.279       .  A
O2446     Cu2453   2.031       .  S
O2447     Cu2453   2.030       .  S
O2448      C2458   1.279       .  A
O2448     Cu2453   1.998       .  S
O2449     Cu2454   1.993       .  S
O2450      C2457   1.280       .  A
O2450     Cu2454   1.994       .  S
O2451     Cu2454   1.986       .  S
O2452     Cu2454   2.044       .  S
C2459      C2460   1.522       .  S
C2459      C2465   1.516       .  S
C2459      C2463   1.508       .  S
C2460      C2461   1.363       .  D
C2461      C2462   1.536       .  S
C2462      C2466   1.565       .  S
C2462      C2464   1.571       .  S
C2462      H2468   1.107       .  S
C2463      H2469   1.079       .  S
C2463      C2464   1.379       .  D
C2464      C2492   1.512       .  S
C2465      H2470   1.087       .  S
C2465      C2466   1.361       .  D
C2466      C2484   1.475       .  S
C2471      C2472   1.511       .  S
C2471      C2477   1.536       .  S
C2471      C2475   1.513       .  S
C2472      C2473   1.359       .  D
C2473      C2474   1.545       .  S
C2474      C2478   1.563       .  S
C2474      C2476   1.553       .  S
C2474      H2480   1.106       .  S
C2475      H2481   1.078       .  S
C2475      C2476   1.372       .  D
C2476      C2504   1.507       .  S
C2477      H2482   1.085       .  S
C2477      C2478   1.384       .  D
C2478      C2487   1.493       .  S
N2483      C2487   1.358   1_556  A
N2483      C2844   1.354       .  A
C2484      N2843   1.354       .  A
C2484      C2485   1.379       .  A
C2485      C2846   1.375       .  A
C2485      H2488   1.082       .  S
C2486      C2845   1.375       .  A
C2486      C2487   1.383   1_556  A
C2486      H2489   1.080       .  S
C2490      C2491   1.518       .  S
C2490      C2496   1.526       .  S
C2490      C2494   1.511       .  S
C2491      H2498   1.079       .  S
C2491      C2492   1.375       .  D
C2492      C2493   1.558       .  S
C2493      C2497   1.566       .  S
C2493      C2495   1.545       .  S
C2493      H2499   1.106       .  S
C2494      C2495   1.358       .  D
C2496      H2501   1.084       .  S
C2496      C2497   1.379       .  D
C2497      C2515   1.488       .  S
C2502      C2503   1.503       .  S
C2502      C2508   1.521       .  S
C2502      C2506   1.521       .  S
C2503      H2510   1.078       .  S
C2503      C2504   1.377       .  D
C2504      C2505   1.567       .  S
C2505      C2509   1.563       .  S
C2505      C2507   1.537       .  S
C2505      H2511   1.107       .  S
C2506      C2507   1.364       .  D
C2508      H2513   1.087       .  S
C2508      C2509   1.365       .  D
C2509      C2518   1.476       .  S
N2514      C2878   1.357       .  A
C2515      C2516   1.382       .  A
C2516      H2519   1.080       .  S
C2517      C2518   1.380       .  A
C2517      H2520   1.082       .  S
C2518      N2874   1.357       .  A
O2521      C2531   1.283       .  A
O2522      C2532   1.276       .  A
O2522     Cu2529   2.001       .  S
O2523     Cu2529   2.011       .  S
O2524      C2534   1.283   1_556  A
O2524     Cu2529   2.056       .  S
O2525     Cu2530   2.057       .  S
O2526      C2533   1.279       .  A
O2526     Cu2530   2.010       .  S
O2527      C2532   1.277       .  A
O2528      C2531   1.276       .  A
O2528     Cu2530   2.022       .  S
C2531      C2682   1.509       .  S
C2532      C2670   1.491       .  S
C2533      N2753   1.432       .  S
O2535      C2545   1.283       .  A
O2535     Cu2543   2.057       .  S
O2536      C2546   1.275       .  A
O2536     Cu2543   2.011       .  S
O2537      C2547   1.276       .  A
O2537     Cu2543   2.000       .  S
O2538      C2548   1.283       .  A
O2539      C2548   1.276       .  A
O2539     Cu2544   2.023       .  S
O2540      C2547   1.277       .  A
O2541     Cu2544   2.010       .  S
O2542     Cu2544   2.056       .  S
C2546      N2843   1.432       .  S
C2547      C2561   1.491       .  S
C2548      C2549   1.509       .  S
C2549      C2550   1.514       .  S
C2549      C2555   1.534       .  S
C2549      C2553   1.518       .  S
C2550      H2557   1.081       .  S
C2550      C2551   1.359       .  D
C2551      C2552   1.540       .  S
C2551      C2675   1.499       .  S
C2552      C2556   1.563       .  S
C2552      C2554   1.546       .  S
C2552      H2558   1.104       .  S
C2553      H2559   1.080       .  S
C2553      C2554   1.372       .  D
C2554      C2582   1.496       .  S
C2555      H2560   1.085       .  S
C2555      C2556   1.381       .  D
C2556      C2574   1.492       .  S
C2561      C2562   1.521       .  S
C2561      C2567   1.515       .  S
C2561      C2565   1.502       .  S
C2562      H2569   1.082       .  S
C2562      C2563   1.363       .  D
C2563      C2564   1.537       .  S
C2563      C2687   1.499       .  S
C2564      C2568   1.566       .  S
C2564      C2566   1.576       .  S
C2564      H2570   1.108       .  S
C2565      H2571   1.077       .  S
C2565      C2566   1.378       .  D
C2566      C2594   1.523       .  S
C2567      H2572   1.087       .  S
C2567      C2568   1.364       .  D
C2568      C2577   1.474       .  S
N2573      C2711   1.431       .  S
N2573      C2577   1.351       .  A
N2573      C2574   1.358       .  A
C2574      C2575   1.384       .  A
C2575      C2576   1.375       .  A
C2575      H2578   1.081       .  S
C2576      C2577   1.379       .  A
C2576      H2579   1.082       .  S
C2580      C2636   1.502       .  S
C2580      C2581   1.511       .  S
C2580      C2586   1.531       .  S
C2580      C2584   1.515       .  S
C2581      H2588   1.080       .  S
C2581      C2582   1.370       .  D
C2582      C2583   1.555       .  S
C2583      C2587   1.558       .  S
C2583      C2585   1.540       .  S
C2583      H2589   1.103       .  S
C2584      H2590   1.078       .  S
C2584      C2585   1.362       .  D
C2585      C2641   1.504       .  S
C2586      H2591   1.085   1_565  S
C2586      C2587   1.379       .  D
C2587      C2605   1.488       .  S
C2592      C2635   1.498       .  S
C2592      C2593   1.506       .  S
C2592      C2598   1.517       .  S
C2592      C2596   1.516       .  S
C2593      H2600   1.077       .  S
C2593      C2594   1.379       .  D
C2594      C2595   1.571       .  S
C2595      C2599   1.574       .  S
C2595      C2597   1.544       .  S
C2595      H2601   1.108       .  S
C2596      H2602   1.078       .  S
C2596      C2597   1.361       .  D
C2597      C2653   1.504       .  S
C2598      H2603   1.087       .  S
C2598      C2599   1.368       .  D
C2599      C2608   1.479       .  S
N2604      C2802   1.432       .  S
N2604      C2605   1.358   1_545  A
C2605      C2606   1.381       .  A
C2606      H2609   1.081       .  S
C2607      C2608   1.380       .  A
C2607      H2610   1.082       .  S
O2611     Cu2619   2.085       .  S
O2612     Cu2619   2.040       .  S
O2613     Cu2619   2.012       .  S
O2614      C2624   1.278       .  A
O2615     Cu2620   2.011       .  S
O2616      C2623   1.282       .  A
O2617     Cu2620   1.991       .  S
O2618     Cu2620   2.045       .  S
C2621      C2638   1.510   1_564  S
C2623      C2651   1.502       .  S
C2624      C2639   1.497       .  S
O2625      C2635   1.278       .  A
O2626     Cu2633   2.012       .  S
O2627      C2637   1.281       .  A
O2627     Cu2633   2.039       .  S
O2628     Cu2633   2.085       .  S
O2629     Cu2634   2.044       .  S
O2630     Cu2634   1.991       .  S
O2631      C2636   1.282       .  A
O2632     Cu2634   2.012       .  S
C2637      N2874   1.435   1_556  S
C2639      C2640   1.516       .  S
C2639      C2645   1.517       .  S
C2639      C2643   1.506       .  S
C2640      H2647   1.078       .  S
C2640      C2641   1.361       .  D
C2641      C2642   1.544       .  S
C2642      C2646   1.573       .  S
C2642      C2644   1.571       .  S
C2642      H2648   1.108       .  S
C2643      H2649   1.077       .  S
C2643      C2644   1.379       .  D
C2644      C2672   1.523       .  S
C2645      H2650   1.087   1_565  S
C2645      C2646   1.368       .  D
C2646      C2664   1.479       .  S
C2651      C2652   1.515       .  S
C2651      C2657   1.531       .  S
C2651      C2655   1.510       .  S
C2652      H2659   1.078       .  S
C2652      C2653   1.362       .  D
C2653      C2654   1.540       .  S
C2654      C2658   1.558       .  S
C2654      C2656   1.555       .  S
C2654      H2660   1.103       .  S
C2655      H2661   1.080       .  S
C2655      C2656   1.369       .  D
C2656      C2684   1.496       .  S
C2657      H2662   1.085       .  S
C2657      C2658   1.379       .  D
C2658      C2667   1.488       .  S
N2663      C2816   1.432       .  S
N2663      C2664   1.358       .  A
C2664      C2665   1.380   1_565  A
C2665      H2668   1.082       .  S
C2666      C2667   1.382       .  A
C2666      H2669   1.081       .  S
C2670      C2671   1.502       .  S
C2670      C2676   1.515       .  S
C2670      C2674   1.521       .  S
C2671      H2678   1.077       .  S
C2671      C2672   1.378       .  D
C2672      C2673   1.576       .  S
C2673      C2677   1.566       .  S
C2673      C2675   1.537       .  S
C2673      H2679   1.108       .  S
C2674      H2680   1.082       .  S
C2674      C2675   1.363       .  D
C2676      H2681   1.087       .  S
C2676      C2677   1.364       .  D
C2677      C2698   1.474       .  S
C2682      C2683   1.518       .  S
C2682      C2688   1.534       .  S
C2682      C2686   1.514       .  S
C2683      H2690   1.080       .  S
C2683      C2684   1.372       .  D
C2684      C2685   1.546       .  S
C2685      C2689   1.563       .  S
C2685      C2687   1.540       .  S
C2685      H2691   1.104       .  S
C2686      H2692   1.081       .  S
C2686      C2687   1.359       .  D
C2688      H2693   1.085       .  S
C2688      C2689   1.381       .  D
C2689      C2695   1.492       .  S
N2694      C2727   1.431       .  S
N2694      C2698   1.351       .  A
N2694      C2695   1.358       .  A
C2695      C2696   1.384       .  A
C2696      C2697   1.375       .  A
C2696      H2699   1.081       .  S
C2697      C2698   1.379       .  A
C2697      H2700   1.082       .  S
O2701      C2711   1.280       .  A
O2701     Cu2709   2.014       .  S
O2702     Cu2709   2.058       .  S
O2703      C2713   1.276       .  A
O2703     Cu2709   1.986       .  S
O2704      C2714   1.276       .  A
O2704     Cu2709   2.030       .  S
O2705      C2714   1.283       .  A
O2705     Cu2710   2.009       .  S
O2706      C2713   1.276       .  A
O2706     Cu2710   1.996       .  S
O2707     Cu2710   2.050       .  S
O2708      C2711   1.274       .  A
O2708     Cu2710   2.003       .  S
Cu2709    Cu2710   2.371       .  S
C2712      C2728   1.502   1_455  S
C2713      C2819   1.490       .  S
C2714      C2831   1.513       .  S
O2715      C2725   1.283       .  A
O2715     Cu2723   2.009       .  S
O2716      C2726   1.277       .  A
O2716     Cu2723   1.997       .  S
O2717      C2727   1.274       .  A
O2717     Cu2723   2.003       .  S
O2718      C2728   1.281       .  A
O2718     Cu2723   2.050       .  S
O2719      C2728   1.284       .  A
O2719     Cu2724   2.058       .  S
O2720      C2727   1.280       .  A
O2720     Cu2724   2.014       .  S
O2721      C2726   1.276       .  A
O2721     Cu2724   1.986       .  S
O2722      C2725   1.276       .  A
O2722     Cu2724   2.029       .  S
Cu2723    Cu2724   2.372       .  S
C2725      C2729   1.513       .  S
C2726      C2741   1.490       .  S
C2729      C2730   1.513       .  S
C2729      C2735   1.536       .  S
C2729      C2733   1.511       .  S
C2730      H2737   1.078       .  S
C2730      C2731   1.372       .  D
C2731      C2732   1.553       .  S
C2731      C2765   1.506       .  S
C2732      C2736   1.563       .  S
C2732      C2734   1.544       .  S
C2732      H2738   1.106       .  S
C2733      H2739   1.081       .  S
C2733      C2734   1.359       .  D
C2735      H2740   1.085       .  S
C2735      C2736   1.384       .  D
C2736      C2757   1.493       .  S
C2741      C2742   1.508       .  S
C2741      C2747   1.515       .  S
C2741      C2745   1.523       .  S
C2742      H2749   1.079       .  S
C2742      C2743   1.379       .  D
C2743      C2744   1.571       .  S
C2743      C2777   1.512       .  S
C2744      C2748   1.565       .  S
C2744      C2746   1.536       .  S
C2744      H2750   1.107       .  S
C2745      H2751   1.082       .  S
C2745      C2746   1.363       .  D
C2747      H2752   1.087       .  S
C2747      C2748   1.361       .  D
C2748      C2754   1.474       .  S
N2753      C2754   1.354       .  A
C2754      C2755   1.379       .  A
C2755      H2758   1.082       .  S
C2756      C2757   1.383   1_554  A
C2756      H2759   1.080       .  S
C2760      C2818   1.494       .  S
C2760      C2761   1.521       .  S
C2760      C2766   1.521       .  S
C2760      C2764   1.503       .  S
C2761      H2768   1.081       .  S
C2761      C2762   1.365       .  D
C2762      C2763   1.537       .  S
C2763      C2767   1.563       .  S
C2763      C2765   1.567       .  S
C2763      H2769   1.107       .  S
C2764      H2770   1.078       .  S
C2764      C2765   1.377       .  D
C2766      H2771   1.087   1_565  S
C2766      C2767   1.365       .  D
C2767      C2788   1.476       .  S
C2772      C2817   1.506       .  S
C2772      C2773   1.511       .  S
C2772      C2778   1.526       .  S
C2772      C2776   1.518       .  S
C2773      H2780   1.081       .  S
C2773      C2774   1.358       .  D
C2774      C2775   1.545       .  S
C2775      C2779   1.566       .  S
C2775      C2777   1.557       .  S
C2775      H2781   1.106       .  S
C2776      H2782   1.079       .  S
C2776      C2777   1.375       .  D
C2778      H2783   1.084       .  S
C2778      C2779   1.379       .  D
C2779      C2785   1.488       .  S
C2785      C2786   1.382       .  A
C2786      H2789   1.080       .  S
C2787      C2788   1.380   1_545  A
C2787      H2790   1.082       .  S
O2791     Cu2799   2.045       .  S
O2792      C2802   1.276   1_565  A
O2792     Cu2799   1.987       .  S
O2793      C2803   1.280       .  A
O2793     Cu2799   1.994       .  S
O2794     Cu2799   1.993       .  S
O2795      C2804   1.279       .  A
O2795     Cu2800   1.998       .  S
O2796     Cu2800   2.031       .  S
O2797     Cu2800   2.031       .  S
O2798     Cu2800   2.065       .  S
C2801      C2815   1.503   1_455  S
C2803      C2850   1.506       .  S
C2804      C2862   1.494       .  S
O2805      C2815   1.286       .  A
O2805     Cu2813   2.066       .  S
O2806      C2816   1.279       .  A
O2806     Cu2813   2.031       .  S
O2807     Cu2813   2.030       .  S
O2808      C2818   1.279       .  A
O2808     Cu2813   1.998       .  S
O2809     Cu2814   1.993       .  S
O2810      C2817   1.280       .  A
O2810     Cu2814   1.994       .  S
O2811     Cu2814   1.986       .  S
O2812     Cu2814   2.044       .  S
C2819      C2820   1.522       .  S
C2819      C2825   1.516       .  S
C2819      C2823   1.508       .  S
C2820      C2821   1.363       .  D
C2821      C2822   1.536       .  S
C2822      C2826   1.566       .  S
C2822      C2824   1.571       .  S
C2822      H2828   1.107       .  S
C2823      H2829   1.079       .  S
C2823      C2824   1.379       .  D
C2824      C2852   1.512       .  S
C2825      H2830   1.087       .  S
C2825      C2826   1.361       .  D
C2826      C2844   1.475       .  S
C2831      C2832   1.511       .  S
C2831      C2837   1.536       .  S
C2831      C2835   1.513       .  S
C2832      C2833   1.359       .  D
C2833      C2834   1.545       .  S
C2834      C2838   1.563       .  S
C2834      C2836   1.553       .  S
C2834      H2840   1.106       .  S
C2835      H2841   1.078       .  S
C2835      C2836   1.372       .  D
C2836      C2864   1.507       .  S
C2837      H2842   1.085       .  S
C2837      C2838   1.384       .  D
C2838      C2847   1.493       .  S
N2843      C2847   1.358       .  A
C2844      C2845   1.379       .  A
C2845      H2848   1.082       .  S
C2846      C2847   1.383       .  A
C2846      H2849   1.080       .  S
C2850      C2851   1.518       .  S
C2850      C2856   1.526       .  S
C2850      C2854   1.512       .  S
C2851      H2858   1.079       .  S
C2851      C2852   1.375       .  D
C2852      C2853   1.558       .  S
C2853      C2857   1.566       .  S
C2853      C2855   1.545       .  S
C2853      H2859   1.106       .  S
C2854      C2855   1.358       .  D
C2856      H2861   1.084       .  S
C2856      C2857   1.379       .  D
C2857      C2875   1.488       .  S
C2862      C2863   1.503       .  S
C2862      C2868   1.521       .  S
C2862      C2866   1.521       .  S
C2863      H2870   1.078       .  S
C2863      C2864   1.377       .  D
C2864      C2865   1.567       .  S
C2865      C2869   1.563       .  S
C2865      C2867   1.537       .  S
C2865      H2871   1.107       .  S
C2866      C2867   1.365       .  D
C2868      H2873   1.087       .  S
C2868      C2869   1.365       .  D
C2869      C2878   1.476       .  S
C2875      C2876   1.382   1_556  A
C2876      H2879   1.080       .  S
C2877      C2878   1.380       .  A
C2877      H2880   1.082       .  S
