geometry optimzed in LAMMPS
_audit_creation_date              2020-12-01 
_audit_creation_method            'lammps2cif' 
_symmetry_space_group_name_H-M    'P1' 
_symmetry_Int_Tables_number       1 
_symmetry_cell_setting            triclinic 
loop_ 
_symmetry_equiv_pos_as_xyz 
  x,y,z 
_cell_length_a                    50.91235084 
_cell_length_b                    50.90176801485528 
_cell_length_c                    36.88532369302591 
_cell_angle_alpha                 89.97474585651602 
_cell_angle_beta                  90.20704830739889 
_cell_angle_gamma                 90.00573347618811 
loop_ 
_atom_site_label 
_atom_site_type_symbol 
_atom_site_fract_x 
_atom_site_fract_y 
_atom_site_fract_z 
_atom_site_charge 
N1          N  0.80434744  0.93182018  0.98876012    -0.27100
N2          N  0.82779424  0.93002885  0.97383683    -0.34900
C3          C  0.83953858  0.95360317  0.97466286     0.01300
C4          C  0.82263158  0.97147714  0.99038353     0.07300
C5          C  0.80037570  0.95700241  0.99909362    -0.05800
H6          H  0.85970854  0.95707475  0.96681759     0.08000
H7          H  0.78367676  0.96372073  0.01459260     0.09200
Cu8        Cu  0.84494868  0.89476011  0.95998723     0.44200
Cu9        Cu  0.78244655  0.89775978  0.99830028     0.42000
Cu10       Cu  0.81927571  0.83342839  0.98991002     0.43900
N11         N  0.86616877  0.86030685  0.95903741    -0.34500
N12         N  0.85798493  0.83753220  0.97191127    -0.28700
C13         C  0.87842195  0.82050001  0.97181107    -0.04800
C14         C  0.90031278  0.83350046  0.95817140     0.07400
C15         C  0.89156969  0.85854088  0.95026977     0.01200
H16         H  0.87769237  0.80064043  0.98222177     0.08900
H17         H  0.90316437  0.87494123  0.94077422     0.07900
N18         N  0.77899573  0.83754591  0.99997236    -0.35900
N19         N  0.76614854  0.86010844  0.00270354    -0.28100
C20         C  0.74040721  0.85500309  0.00699772    -0.03300
C21         C  0.73656685  0.82798570  0.00689225     0.05300
C22         C  0.76162350  0.81766337  0.00245876     0.03400
H23         H  0.72557640  0.87009385  0.00928892     0.08500
H24         H  0.76694804  0.79717007  0.00019983     0.07300
N25         N  0.96626702  0.80466146  0.96483864    -0.27100
N26         N  0.97131222  0.82898787  0.95456178    -0.34900
C27         C  0.94876622  0.84187680  0.94905223     0.01300
C28         C  0.92811498  0.82519571  0.95658377     0.07300
C29         C  0.93987507  0.80154898  0.96644879    -0.05800
H30         H  0.94765981  0.86256650  0.94255587     0.08000
H31         H  0.93007327  0.78390852  0.97560257     0.09200
Cu32       Cu  0.00769869  0.84642981  0.95660601     0.44200
Cu33       Cu  0.99720510  0.77925649  0.97821099     0.42000
Cu34       Cu  0.06222928  0.81357469  0.99267622     0.43900
N35         N  0.04079547  0.86612919  0.97359193    -0.34500
N36         N  0.06159229  0.85439797  0.98762201    -0.28700
C37         C  0.07840811  0.87298727  0.99982971    -0.04800
C38         C  0.06721656  0.89742813  0.99333312     0.07400
C39         C  0.04339395  0.89220551  0.97692503     0.01200
H40         H  0.09633936  0.86900525  0.01465882     0.08900
H41         H  0.02832504  0.90630389  0.96980837     0.07900
N42         N  0.05624122  0.77296003  0.99198156    -0.35900
N43         N  0.03355459  0.76073544  0.98668809    -0.28100
C44         C  0.03797172  0.73461671  0.98616216    -0.03300
C45         C  0.06463677  0.73005066  0.99142067     0.05300
C46         C  0.07543604  0.75493928  0.99505968     0.03400
H47         H  0.02279521  0.72007846  0.98184444     0.08500
H48         H  0.09593934  0.75983903  0.99866579     0.07300
N49         N  0.93107379  0.09069110  0.03060364    -0.27100
N50         N  0.92596831  0.06616904  0.03979452    -0.34900
C51         C  0.94838508  0.05277565  0.04335296     0.01300
C52         C  0.96911845  0.06933906  0.03587572     0.07300
C53         C  0.95749130  0.09347228  0.02792171    -0.05800
H54         H  0.94927279  0.03195072  0.04901961     0.08000
H55         H  0.96737142  0.11129871  0.01966161     0.09200
Cu56       Cu  0.88939020  0.04941860  0.03962001     0.44200
Cu57       Cu  0.89966349  0.11641320  0.02038592     0.42000
Cu58       Cu  0.83362308  0.08203049  0.00817280     0.43900
N59         N  0.85653303  0.02932811  0.02327177    -0.34500
N60         N  0.83505128  0.04081673  0.01095467    -0.28700
C61         C  0.81840670  0.02193039  0.99897354    -0.04800
C62         C  0.83051418  0.99764105  0.00375022     0.07400
C63         C  0.85462416  0.00327095  0.01897071     0.01200
H64         H  0.79980450  0.02564741  0.98567098     0.08900
H65         H  0.87022417  0.98948089  0.02497567     0.07900
N66         N  0.84009009  0.12288607  0.00888545    -0.35900
N67         N  0.86305127  0.13487927  0.01308261    -0.28100
C68         C  0.85911515  0.16107305  0.01221103    -0.03300
C69         C  0.83251073  0.16606046  0.00724343     0.05300
C70         C  0.82119431  0.14125157  0.00528432     0.03400
H71         H  0.87463403  0.17541530  0.01526121     0.08500
H72         H  0.80064906  0.13669743  0.00124338     0.07300
N73         N  0.09375369  0.96265180  0.01068039    -0.27100
N74         N  0.06998803  0.96451464  0.02458992    -0.34900
C75         C  0.05804214  0.94110038  0.02285029     0.01300
C76         C  0.07510118  0.92328767  0.00746244     0.07300
C77         C  0.09770763  0.93756024  0.99999612    -0.05800
H78         H  0.03764658  0.93777810  0.02961924     0.08000
H79         H  0.11466870  0.93082694  0.98506035     0.09200
Cu80       Cu  0.05240990  0.99965944  0.03718837     0.44200
Cu81       Cu  0.11617145  0.99651419  0.00277999     0.42000
Cu82       Cu  0.07965344  0.06101367  0.01112529     0.43900
N83         N  0.03093440  0.03381638  0.03538966    -0.34500
N84         N  0.03982718  0.05683006  0.02438307    -0.28700
C85         C  0.01942860  0.07394199  0.02332392    -0.04800
C86         C  0.99685081  0.06069211  0.03422368     0.07400
C87         C  0.00514184  0.03541914  0.04159095     0.01200
H88         H  0.02079359  0.09417993  0.01457792     0.08900
H89         H  0.99317898  0.01891363  0.04978479     0.07900
N90         N  0.12030508  0.05665380  0.00342471    -0.35900
N91         N  0.13293818  0.03398296  0.00046519    -0.28100
C92         C  0.15882011  0.03878251  0.99733901    -0.03300
C93         C  0.16302035  0.06571537  0.99845785     0.05300
C94         C  0.13801263  0.07632870  0.00226220     0.03400
H95         H  0.17347238  0.02352756  0.99490834     0.08500
H96         H  0.13294059  0.09686657  0.00479888     0.07300
C97         C  0.51885953  0.70282492  0.01240336     0.30200
C98         C  0.47420226  0.67273349  0.01197043     0.30200
C99         C  0.49843673  0.70970299  0.98244754    -0.06000
C100        C  0.52279790  0.67317312  0.00577442    -0.06800
C101        C  0.50236288  0.70315364  0.04740180    -0.06600
C102        C  0.47540720  0.69431610  0.98275463    -0.06000
C103        C  0.50009024  0.65789571  0.00564285    -0.06800
C104        C  0.47981117  0.68791576  0.04663298    -0.06600
C105        C  0.46538769  0.69463025  0.94801667    -0.32000
N106        N  0.48039691  0.71013602  0.92681563     0.14500
C107        C  0.50131629  0.71814412  0.94679556    -0.32000
H108        H  0.51831350  0.72782254  0.93549831     0.16400
C109        C  0.50771236  0.63221912  0.00056624    -0.31000
N110        N  0.53431136  0.63140952  0.99806040     0.13200
C111        C  0.54366632  0.65634665  0.00066495    -0.31000
C112        C  0.46755235  0.69035597  0.07938939    -0.31300
N113        N  0.48190258  0.70670470  0.10066765     0.13700
H114        H  0.44966393  0.68046020  0.08738791     0.16300
C115        C  0.50341798  0.71455395  0.08150932    -0.31300
H116        H  0.51852999  0.72766894  0.09145833     0.16300
H117        H  0.56422366  0.66168116  0.00004934     0.16300
H118        H  0.44975988  0.68225598  0.93777008     0.16400
H119        H  0.49492699  0.61528659  0.99892911     0.16300
C120        C  0.19662020  0.51649111  0.99903350     0.30200
C121        C  0.22839019  0.47296116  0.99947426     0.30200
C122        C  0.19901666  0.50144691  0.96279411    -0.06000
C123        C  0.22565307  0.52132133  0.00920079    -0.06800
C124        C  0.18891164  0.49452836  0.02622570    -0.06600
C125        C  0.21548154  0.47966949  0.96315782    -0.06000
C126        C  0.24180148  0.49919792  0.00901514    -0.06800
C127        C  0.20492210  0.47208896  0.02524870    -0.06600
C128        C  0.21661170  0.47008896  0.92846012    -0.32000
N129        N  0.20067998  0.48473623  0.90693619     0.14500
C130        C  0.18975098  0.50401561  0.92760757    -0.32000
H131        H  0.17650982  0.51903060  0.91768980     0.16400
C132        C  0.26730605  0.50805043  0.01120511    -0.31000
N133        N  0.26719227  0.53459610  0.01463335     0.13200
C134        C  0.24181096  0.54291329  0.01332996    -0.31000
C135        C  0.20191777  0.45887706  0.05739849    -0.31300
N136        N  0.18525261  0.47244278  0.07877501     0.13700
H137        H  0.21346891  0.44220273  0.06625369     0.16300
C138        C  0.17832736  0.49477942  0.06096213    -0.31300
H139        H  0.16804871  0.51095641  0.07350937     0.16300
H140        H  0.23561867  0.56322071  0.01408842     0.16300
H141        H  0.22813802  0.45352221  0.91939004     0.16400
H142        H  0.28481163  0.49627103  0.00795133     0.16300
C143        C  0.66954173  0.42289896  0.98024905     0.30200
C144        C  0.70178012  0.37997013  0.98688534     0.30200
C145        C  0.68863946  0.42337026  0.01226408    -0.06000
C146        C  0.65571107  0.39616340  0.98434586    -0.06800
C147        C  0.68766950  0.41755608  0.94820372    -0.06600
C148        C  0.70482578  0.40131404  0.01672715    -0.06000
C149        C  0.67201535  0.37434839  0.98829865    -0.06800
C150        C  0.70422112  0.39593818  0.95139332    -0.06600
C151        C  0.71038243  0.40047940  0.05369238    -0.32000
N152        N  0.70010808  0.42201154  0.07025689     0.14500
C153        C  0.68653128  0.43576822  0.04508581    -0.32000
H154        H  0.67423096  0.45261441  0.05055141     0.16400
C155        C  0.65596458  0.35247557  0.98888275    -0.31000
N156        N  0.63064076  0.36038666  0.98430067     0.13200
C157        C  0.63041881  0.38694599  0.98100793    -0.31000
C158        C  0.71672536  0.39315553  0.91834813    -0.31300
N159        N  0.70778386  0.41222134  0.89548224     0.13700
H160        H  0.73023282  0.37767025  0.91096545     0.16300
C161        C  0.68989147  0.42693326  0.91354670    -0.31300
H162        H  0.67871487  0.44293886  0.90192429     0.16300
H163        H  0.61308646  0.39863803  0.97578247     0.16300
H164        H  0.71906718  0.38416665  0.06819157     0.16400
H165        H  0.66228662  0.33224363  0.99094224     0.16300
C166        C  0.37980117  0.19174061  0.00146163     0.30200
C167        C  0.42339616  0.22325041  0.00175468     0.30200
C168        C  0.39694316  0.19098129  0.96718219    -0.06000
C169        C  0.37476820  0.22137998  0.00640422    -0.06800
C170        C  0.39984928  0.18627499  0.03245663    -0.06600
C171        C  0.41888731  0.20699880  0.96770859    -0.06000
C172        C  0.39694738  0.23737090  0.00665228    -0.06800
C173        C  0.42238591  0.20243483  0.03201945    -0.06600
C174        C  0.43171073  0.20396501  0.93542517    -0.32000
N175        N  0.41830107  0.18636037  0.91482964     0.14500
C176        C  0.39684807  0.17836531  0.93394972    -0.32000
H177        H  0.38241879  0.16427931  0.92463063     0.16400
C178        C  0.38843968  0.26280958  0.01110803    -0.31000
N179        N  0.36176593  0.26284409  0.01299781     0.13200
C180        C  0.35328234  0.23755912  0.01047757    -0.31000
C181        C  0.43162998  0.20374604  0.06708175    -0.31300
N182        N  0.41669460  0.18854598  0.08876679     0.13700
H183        H  0.44666274  0.21697965  0.07697135     0.16300
C184        C  0.39649236  0.17907604  0.06856434    -0.31300
H185        H  0.37961874  0.16919938  0.07986689     0.16300
H186        H  0.33296980  0.23136543  0.01152531     0.16300
H187        H  0.44933491  0.21427714  0.92734722     0.16400
H188        H  0.40072377  0.28011316  0.01197239     0.16300
N189        N  0.93346676  0.80155726  0.48038958    -0.27100
N190        N  0.92913203  0.82693502  0.47612658    -0.34900
C191        C  0.95184281  0.83941041  0.47053259     0.01300
C192        C  0.97205339  0.82135401  0.47149368     0.07300
C193        C  0.95973476  0.79730540  0.47791516    -0.05800
H194        H  0.95345913  0.86045911  0.46724290     0.08000
H195        H  0.96911300  0.77833913  0.48067893     0.09200
Cu196      Cu  0.89345066  0.84520588  0.48202656     0.44200
Cu197      Cu  0.90122412  0.77643754  0.48912486     0.42000
Cu198      Cu  0.83598392  0.81254883  0.50456383     0.43900
N199        N  0.86019242  0.86533239  0.49673409    -0.34500
N200        N  0.83788994  0.85376935  0.50538341    -0.28700
C201        C  0.82055883  0.87251885  0.51569849    -0.04800
C202        C  0.83306545  0.89681944  0.51375320     0.07400
C203        C  0.85809633  0.89130521  0.50175872     0.01200
H204        H  0.80096468  0.86868123  0.52562876     0.08900
H205        H  0.87397869  0.90514503  0.49791245     0.07900
N206        N  0.84126867  0.77170495  0.49955647    -0.35900
N207        N  0.86376076  0.75908685  0.49426907    -0.28100
C208        C  0.85867435  0.73312554  0.49174158    -0.03300
C209        C  0.83182106  0.72899736  0.49553000     0.05300
C210        C  0.82158859  0.75401982  0.50046272     0.03400
H211        H  0.87353696  0.71838167  0.48692261     0.08500
H212        H  0.80121040  0.75918714  0.50448652     0.07300
N213        N  0.80389524  0.96171224  0.52771117    -0.27100
N214        N  0.82755756  0.96479996  0.54185528    -0.34900
C215        C  0.84044551  0.94184529  0.54094422     0.01300
C216        C  0.82419432  0.92301644  0.52589375     0.07300
C217        C  0.80099579  0.93625391  0.51782722    -0.05800
H218        H  0.86087413  0.93944553  0.54841978     0.08000
H219        H  0.78422980  0.92851068  0.50323302     0.09200
Cu220      Cu  0.84382585  0.00086644  0.55434010     0.44200
Cu221      Cu  0.77981745  0.99449956  0.51886031     0.42000
Cu222      Cu  0.81458356  0.06008930  0.52536873     0.43900
N223        N  0.86459507  0.03547381  0.54903307    -0.34500
N224        N  0.85469188  0.05761438  0.53632214    -0.28700
C225        C  0.87467525  0.07431056  0.52885824    -0.04800
C226        C  0.89815719  0.06165896  0.53706452     0.07400
C227        C  0.89078616  0.03727693  0.55003213     0.01200
H228        H  0.87240642  0.09315274  0.51563872     0.08900
H229        H  0.90361201  0.02105474  0.55682913     0.07900
N230        N  0.77422765  0.05451026  0.51874641    -0.35900
N231        N  0.76196949  0.03160402  0.51594710    -0.28100
C232        C  0.73599025  0.03608485  0.51258269    -0.03300
C233        C  0.73156200  0.06298068  0.51358731     0.05300
C234        C  0.75632670  0.07393276  0.51749718     0.03400
H235        H  0.72135859  0.02075396  0.51041843     0.08500
H236        H  0.76113996  0.09458821  0.51923448     0.07300
N237        N  0.09568687  0.92764289  0.48813567    -0.27100
N238        N  0.07243068  0.92448083  0.47288493    -0.34900
C239        C  0.05963509  0.94741926  0.47245409     0.01300
C240        C  0.07544348  0.96639178  0.48798411     0.07300
C241        C  0.09842453  0.95323889  0.49758805    -0.05800
H242        H  0.03947557  0.94973951  0.46347391     0.08000
H243        H  0.11485353  0.96115839  0.51259451     0.09200
Cu244      Cu  0.05642392  0.88851803  0.46028969     0.44200
Cu245      Cu  0.11890718  0.89442633  0.49782572     0.42000
Cu246      Cu  0.08378734  0.82822171  0.48728753     0.43900
N247        N  0.03478860  0.85445070  0.46226677    -0.34500
N248        N  0.04368965  0.83160840  0.47395036    -0.28700
C249        C  0.02298004  0.81499809  0.47745020    -0.04800
C250        C  0.00017000  0.82848668  0.46765293     0.07400
C251        C  0.00873509  0.85326211  0.45803889     0.01200
H252        H  0.02419501  0.79529684  0.48833362     0.08900
H253        H  0.99673045  0.86996727  0.45066622     0.07900
N254        N  0.12423945  0.83409410  0.49702087    -0.35900
N255        N  0.13621239  0.85709133  0.50093676    -0.28100
C256        C  0.16208173  0.85290362  0.50602275    -0.03300
C257        C  0.16700749  0.82608685  0.50524617     0.05300
C258        C  0.14240984  0.81488491  0.49947987     0.03400
H259        H  0.17628177  0.86850215  0.50942354     0.08500
H260        H  0.13789354  0.79421283  0.49698173     0.07300
N261        N  0.96370101  0.08853499  0.51711397    -0.27100
N262        N  0.96763337  0.06292503  0.51688468    -0.34900
C263        C  0.94507302  0.05032008  0.52282572     0.01300
C264        C  0.92541240  0.06859695  0.52722523     0.07300
C265        C  0.93777353  0.09288707  0.52312456    -0.05800
H266        H  0.94335559  0.02917728  0.52464833     0.08000
H267        H  0.92887240  0.11207484  0.52588593     0.09200
Cu268      Cu  0.00331354  0.04510365  0.51189382     0.44200
Cu269      Cu  0.99646512  0.11355279  0.51199775     0.42000
Cu270      Cu  0.06287905  0.07749245  0.50418964     0.43900
N271        N  0.03776804  0.02495837  0.50705581    -0.34500
N272        N  0.06098728  0.03618195  0.50385198    -0.28700
C273        C  0.07908500  0.01704068  0.49842495    -0.04800
C274        C  0.06611152  0.99290565  0.49795513     0.07400
C275        C  0.04007722  0.99894469  0.50364275     0.01200
H276        H  0.09972384  0.02049215  0.49311040     0.08900
H277        H  0.02361302  0.98540106  0.50386178     0.07900
N278        N  0.05685564  0.11849621  0.50556252    -0.35900
N279        N  0.03403783  0.13098367  0.50829007    -0.28100
C280        C  0.03868893  0.15708876  0.50872256    -0.03300
C281        C  0.06558741  0.16154159  0.50613322     0.05300
C282        C  0.07629556  0.13645730  0.50415518     0.03400
H283        H  0.02340444  0.17174250  0.51084003     0.08500
H284        H  0.09685808  0.13140650  0.50210022     0.07300
C285        C  0.67123644  0.46907832  0.49331753     0.30200
C286        C  0.70300677  0.51262421  0.49275963     0.30200
C287        C  0.68246853  0.47677477  0.45648173    -0.06000
C288        C  0.65837361  0.49503776  0.50538298    -0.06800
C289        C  0.69588774  0.46743179  0.51708139    -0.06600
C290        C  0.69885311  0.49864435  0.45597198    -0.06000
C291        C  0.67458341  0.51708385  0.50557155    -0.06800
C292        C  0.71202410  0.48990464  0.51804678    -0.06600
C293        C  0.70641287  0.50221880  0.42030173    -0.32000
N294        N  0.69467275  0.48338366  0.39955642     0.14500
C295        C  0.67987582  0.46802002  0.42153556    -0.32000
H296        H  0.66811793  0.45153430  0.41265018     0.16400
C297        C  0.65890669  0.53851570  0.51300318    -0.31000
N298        N  0.63366124  0.53021586  0.51630232     0.13200
C299        C  0.63312085  0.50385191  0.51096490    -0.31000
C300        C  0.72298993  0.48990186  0.55269918    -0.31300
N301        N  0.71575989  0.46779928  0.57067324     0.13700
H302        H  0.73279108  0.50626140  0.56564929     0.16300
C303        C  0.69906577  0.45426036  0.54921462    -0.31300
H304        H  0.68769764  0.43740808  0.55774914     0.16300
H305        H  0.61533979  0.49231649  0.50878669     0.16300
H306        H  0.71906964  0.51761935  0.41016935     0.16400
H307        H  0.66520598  0.55876811  0.51462537     0.16300
C308        C  0.47300098  0.22254317  0.50288724     0.30200
C309        C  0.51629397  0.19052168  0.50265192     0.30200
C310        C  0.47758332  0.20669034  0.46852341    -0.06000
C311        C  0.49961648  0.23634342  0.50871122    -0.06800
C312        C  0.47366910  0.20123908  0.53254237    -0.06600
C313        C  0.49947338  0.19054081  0.46791316    -0.06000
C314        C  0.52154920  0.22000956  0.50875442    -0.06800
C315        C  0.49589616  0.18474202  0.53287498    -0.06600
C316        C  0.49947007  0.17818570  0.43447928    -0.32000
N317        N  0.47789742  0.18631141  0.41556803     0.14500
C318        C  0.46455747  0.20376435  0.43626833    -0.32000
H319        H  0.44673833  0.21386925  0.42826141     0.16400
C320        C  0.54321475  0.23569882  0.51413195    -0.31000
N321        N  0.53529643  0.26115883  0.51658840     0.13200
C322        C  0.50860608  0.26163079  0.51378019    -0.31000
C323        C  0.49860584  0.17625956  0.56856561    -0.31300
N324        N  0.47838423  0.18557458  0.58876550     0.13700
H325        H  0.51512891  0.16556853  0.57957228     0.16300
C326        C  0.46415480  0.20184570  0.56737931    -0.31300
H327        H  0.44940681  0.21531562  0.57727203     0.16300
H328        H  0.49661054  0.27913063  0.51435178     0.16300
H329        H  0.51376232  0.16409396  0.42491511     0.16400
H330        H  0.56331075  0.22897274  0.51603905     0.16300
C331        C  0.42626591  0.66655655  0.51202894     0.30200
C332        C  0.38293809  0.69846498  0.51249927     0.30200
C333        C  0.42670299  0.68943194  0.48469923    -0.06000
C334        C  0.39995280  0.65307945  0.50284548    -0.06800
C335        C  0.42040660  0.68044352  0.54757164    -0.06600
C336        C  0.40430245  0.70574286  0.48426909    -0.06000
C337        C  0.37791753  0.66932361  0.50319483    -0.06800
C338        C  0.39862660  0.69669137  0.54818539    -0.06600
C339        C  0.40234134  0.71508452  0.44889704    -0.32000
N340        N  0.42326610  0.70671682  0.42938008     0.14500
C341        C  0.43743710  0.69033823  0.45054075    -0.32000
H342        H  0.45280109  0.67760952  0.44048859     0.16400
C343        C  0.35655506  0.65386698  0.49463372    -0.31000
N344        N  0.36482820  0.62872166  0.48941166     0.13200
C345        C  0.39138357  0.62819819  0.49386407    -0.31000
C346        C  0.39852577  0.70872763  0.58181790    -0.31300
N347        N  0.41976932  0.70012624  0.60110942     0.13700
H348        H  0.38467795  0.72341540  0.59089768     0.16300
C349        C  0.43306430  0.68270749  0.58023287    -0.31300
H350        H  0.45094399  0.67260606  0.58792896     0.16300
H351        H  0.40349352  0.61084202  0.49162112     0.16300
H352        H  0.38579403  0.72550635  0.43738015     0.16400
H353        H  0.33642791  0.66048402  0.49237341     0.16300
C354        C  0.19428635  0.37837890  0.49354012     0.30200
C355        C  0.22625959  0.42180732  0.49075764     0.30200
C356        C  0.19611625  0.39501402  0.52856199    -0.06000
C357        C  0.22346828  0.37309723  0.48493658    -0.06800
C358        C  0.18711430  0.39908471  0.46411659    -0.06600
C359        C  0.21260821  0.41675573  0.52698989    -0.06000
C360        C  0.23971798  0.39511534  0.48397773    -0.06800
C361        C  0.20333455  0.42155860  0.46377354    -0.06600
C362        C  0.21372258  0.42747411  0.56108644    -0.32000
N363        N  0.19784260  0.41355172  0.58344888     0.14500
C364        C  0.18689952  0.39360780  0.56385826    -0.32000
H365        H  0.17394090  0.37872232  0.57469096     0.16400
C366        C  0.26513812  0.38606729  0.48115336    -0.31000
N367        N  0.26486280  0.35942177  0.47883426     0.13200
C368        C  0.23942495  0.35132960  0.48112355    -0.31000
C369        C  0.20267037  0.43187460  0.42939076    -0.31300
N370        N  0.18728108  0.41672504  0.40813145     0.13700
H371        H  0.21477796  0.44787070  0.41974173     0.16300
C372        C  0.17854023  0.39629335  0.42841026    -0.31300
H373        H  0.16930981  0.37906946  0.41687836     0.16300
H374        H  0.23301749  0.33108169  0.48104546     0.16300
H375        H  0.22550945  0.44413232  0.56925794     0.16400
H376        H  0.28274066  0.39787176  0.48309291     0.16300
C377        C  0.34814380  0.60613646  0.48331223    -0.03100
C378        C  0.32208428  0.60592389  0.49601834    -0.08900
C379        C  0.30646013  0.58345476  0.49246564    -0.16600
C380        C  0.31652732  0.56080292  0.47613387     0.25600
C381        C  0.34220930  0.56095203  0.46263322    -0.18200
C382        C  0.35790203  0.58343656  0.46615144    -0.07100
C383        C  0.30086800  0.53714543  0.47487915    -0.13600
C384        C  0.28771335  0.51738088  0.47581833    -0.13300
C385        C  0.27213281  0.49375735  0.47882590     0.25500
C386        C  0.27911230  0.47113047  0.45966731    -0.18700
C387        C  0.26443353  0.44804043  0.46349297    -0.07200
C388        C  0.24306761  0.44673822  0.48772597    -0.03300
C389        C  0.23504418  0.47032246  0.50444768    -0.08600
C390        C  0.24977914  0.49339009  0.50076126    -0.16200
H391        H  0.31399441  0.62280365  0.50982306     0.11900
H392        H  0.28667247  0.58358050  0.50318730     0.11200
H393        H  0.35024765  0.54356579  0.44988720     0.11200
H394        H  0.37770627  0.58298473  0.45561858     0.11700
H395        H  0.29576201  0.47138481  0.44145298     0.11700
H396        H  0.26946488  0.43153408  0.44652609     0.11700
H397        H  0.21711737  0.47116720  0.52000918     0.11800
H398        H  0.24356135  0.51101908  0.51475676     0.10700
C399        C  0.28794451  0.34289098  0.47744249    -0.03100
C400        C  0.31167797  0.35259133  0.46312410    -0.08900
C401        C  0.33458500  0.33741544  0.46422367    -0.16600
C402        C  0.33417859  0.31223269  0.47943831     0.25600
C403        C  0.31054110  0.30208726  0.49281470    -0.18200
C404        C  0.28758862  0.31725360  0.49179931    -0.07100
C405        C  0.35812942  0.29713620  0.48225294    -0.13600
C406        C  0.37818702  0.28462182  0.48545984    -0.13300
C407        C  0.40190127  0.26938825  0.49013862     0.25500
C408        C  0.40108490  0.24552889  0.50887354    -0.18700
C409        C  0.42391429  0.23058772  0.51335609    -0.07200
C410        C  0.44832229  0.23961580  0.50024914    -0.03300
C411        C  0.44857177  0.26303915  0.47984592    -0.08600
C412        C  0.42568263  0.27799141  0.47534683    -0.16200
H413        H  0.31260406  0.37200153  0.45123544     0.11900
H414        H  0.35269289  0.34546461  0.45358369     0.11200
H415        H  0.30994832  0.28261915  0.50466098     0.11200
H416        H  0.26982979  0.30919283  0.50333788     0.11700
H417        H  0.38267335  0.23822296  0.51954395     0.11700
H418        H  0.42208065  0.21158237  0.52613576     0.11700
H419        H  0.46638718  0.26960748  0.46678149     0.11800
H420        H  0.42647981  0.29608674  0.45992462     0.10700
C421        C  0.65460168  0.44408009  0.49540699    -0.03100
C422        C  0.63477842  0.44150060  0.52182672    -0.08900
C423        C  0.62097032  0.41800199  0.52595343    -0.16600
C424        C  0.62741860  0.39614401  0.50496043     0.25600
C425        C  0.64811150  0.39777177  0.48020953    -0.18200
C426        C  0.66192182  0.42136337  0.47601345    -0.07100
C427        C  0.61318695  0.37194423  0.50971756    -0.13600
C428        C  0.60051791  0.35213584  0.51371044    -0.13300
C429        C  0.58468226  0.32883377  0.51715049     0.25500
C430        C  0.59465941  0.30452087  0.50625374    -0.18700
C431        C  0.57867445  0.28220620  0.50688628    -0.07200
C432        C  0.55238090  0.28382116  0.51858916    -0.03300
C433        C  0.54283196  0.30828318  0.53059526    -0.08600
C434        C  0.55885054  0.33060979  0.52975640    -0.16200
H435        H  0.63056580  0.45715270  0.54063866     0.11900
H436        H  0.60564165  0.41671773  0.54618444     0.11200
H437        H  0.65388159  0.38069748  0.46462665     0.11200
H438        H  0.67875720  0.42155567  0.45824305     0.11700
H439        H  0.61461397  0.30292147  0.49636903     0.11700
H440        H  0.58675285  0.26395428  0.49696504     0.11700
H441        H  0.52293752  0.31029303  0.54038306     0.11800
H442        H  0.55094385  0.34934073  0.53838856     0.10700
C443        C  0.45096933  0.64961982  0.51446163    -0.03100
C444        C  0.47575378  0.66004332  0.50525186    -0.08900
C445        C  0.49858201  0.64514382  0.50944551    -0.16600
C446        C  0.49729342  0.61986972  0.52407231     0.25600
C447        C  0.47308366  0.60976642  0.53528015    -0.18200
C448        C  0.45018206  0.62471234  0.53112397    -0.07100
C449        C  0.52090584  0.60449400  0.52751146    -0.13600
C450        C  0.54101703  0.59199789  0.52856473    -0.13300
C451        C  0.56501086  0.57706025  0.52756494     0.25500
C452        C  0.56594246  0.55185769  0.54265263    -0.18700
C453        C  0.58870071  0.53668085  0.53955854    -0.07200
C454        C  0.61086188  0.54653919  0.52135963    -0.03300
C455        C  0.60995793  0.57212539  0.50701107    -0.08600
C456        C  0.58713548  0.58724769  0.51002777    -0.16200
H457        H  0.47776648  0.67997753  0.49556296     0.11900
H458        H  0.51730788  0.65347287  0.50158333     0.11200
H459        H  0.47193224  0.59045500  0.54752553     0.11200
H460        H  0.43194020  0.61691004  0.54149141     0.11700
H461        H  0.54894975  0.54377973  0.55630797     0.11700
H462        H  0.58896706  0.51717217  0.55123875     0.11700
H463        H  0.62657016  0.58011959  0.49248462     0.11800
H464        H  0.58657909  0.60669219  0.49808963     0.10700
C465        C  0.07983545  0.18735608  0.50586163    -0.03100
C466        C  0.10729480  0.18845042  0.50106383    -0.08900
C467        C  0.12064616  0.21259403  0.50088176    -0.16600
C468        C  0.10693182  0.23622443  0.50549524     0.25600
C469        C  0.07963672  0.23538536  0.51027392    -0.18200
C470        C  0.06622569  0.21125621  0.51045402    -0.07100
C471        C  0.12083782  0.26122090  0.50516313    -0.13600
C472        C  0.13268082  0.28195834  0.50455003    -0.13300
C473        C  0.14719867  0.30658357  0.50315313     0.25500
C474        C  0.13804059  0.32758791  0.48203950    -0.18700
C475        C  0.15252301  0.35101109  0.47960057    -0.07200
C476        C  0.17695528  0.35374352  0.49744387    -0.03300
C477        C  0.18513546  0.33303364  0.52028667    -0.08600
C478        C  0.17061099  0.30965515  0.52279363    -0.16200
H479        H  0.11862085  0.17070360  0.49732455     0.11900
H480        H  0.14173966  0.21280171  0.49709281     0.11200
H481        H  0.06866112  0.25342145  0.51387240     0.11200
H482        H  0.04518359  0.21145666  0.51430642     0.11700
H483        H  0.11961995  0.32589815  0.46742314     0.11700
H484        H  0.14412131  0.36697978  0.46424233     0.11700
H485        H  0.20313363  0.33478214  0.53581998     0.11800
H486        H  0.17780214  0.29387583  0.53985827     0.10700
C487        C  0.19296578  0.81252662  0.50890422    -0.03100
C488        C  0.21600441  0.82679245  0.51706765    -0.08900
C489        C  0.24035543  0.81406130  0.52017909    -0.16600
C490        C  0.24220438  0.78684175  0.51522703     0.25600
C491        C  0.21945176  0.77248400  0.50718219    -0.18200
C492        C  0.19509281  0.78514991  0.50406582    -0.04700
C493        C  0.26735375  0.77358742  0.51794199    -0.13600
C494        C  0.28801020  0.76177292  0.51930237    -0.13300
C495        C  0.31227590  0.74685172  0.51950177     0.25500
C496        C  0.31353481  0.72234385  0.53669569    -0.18700
C497        C  0.33654323  0.70726330  0.53509807    -0.07200
C498        C  0.35853494  0.71598005  0.51531206    -0.03300
C499        C  0.35757321  0.74141105  0.50014624    -0.08600
C500        C  0.33458419  0.75652252  0.50185992    -0.16200
H501        H  0.21536494  0.84781312  0.52114940     0.11900
H502        H  0.25775447  0.82548931  0.52638944     0.11200
H503        H  0.22053387  0.75142808  0.50318343     0.11200
H504        H  0.17801909  0.77339013  0.49764725     0.11700
H505        H  0.29664249  0.71475255  0.55107982     0.11700
H506        H  0.33699616  0.68847454  0.54884933     0.11700
H507        H  0.37459073  0.74999283  0.48740979     0.11800
H508        H  0.33419588  0.77574395  0.48924214     0.10700
C509        C  0.54079761  0.17321926  0.49997255    -0.03100
C510        C  0.56209397  0.18132522  0.47830530    -0.08900
C511        C  0.58560280  0.16704878  0.47786956    -0.16600
C512        C  0.58793022  0.14385167  0.49800351     0.25600
C513        C  0.56619581  0.13443483  0.51714009    -0.18200
C514        C  0.54273376  0.14877428  0.51772453    -0.07100
C515        C  0.61260642  0.12985954  0.49951261    -0.13600
C516        C  0.63321911  0.11818167  0.50196898    -0.13300
C517        C  0.65779640  0.10418931  0.50544172     0.25500
C518        C  0.65980929  0.07813765  0.49358913    -0.18700
C519        C  0.68368807  0.06462972  0.49657354    -0.07200
C520        C  0.70600302  0.07704376  0.51129985    -0.03300
C521        C  0.70371320  0.10316055  0.52348003    -0.08600
C522        C  0.67978456  0.11658291  0.52063266    -0.16200
H523        H  0.56078792  0.19916441  0.46240435     0.11900
H524        H  0.60203678  0.17427660  0.46217280     0.11200
H525        H  0.56742265  0.11604939  0.53186009     0.11200
H526        H  0.52615674  0.14037901  0.53170037     0.11700
H527        H  0.64294486  0.06829048  0.48184110     0.11700
H528        H  0.68474166  0.04463001  0.48676094     0.11700
H529        H  0.72034207  0.11323690  0.53540742     0.11800
H530        H  0.67847480  0.13667638  0.53014466     0.10700
C531        C  0.81713704  0.70354530  0.49427012    -0.03100
C532        C  0.83048456  0.67932199  0.49611326    -0.08900
C533        C  0.81661178  0.65549341  0.49516168    -0.16600
C534        C  0.78915545  0.65535854  0.49221991     0.25600
C535        C  0.77570609  0.67932969  0.49028279    -0.18200
C536        C  0.78951760  0.70316979  0.49131839    -0.07100
C537        C  0.77482619  0.63070506  0.49108105    -0.13600
C538        C  0.76288388  0.61008654  0.49011327    -0.13300
C539        C  0.74866310  0.58536878  0.48926353     0.25500
C540        C  0.72423323  0.58357632  0.47186290    -0.18700
C541        C  0.71024945  0.55983516  0.47190491    -0.07200
C542        C  0.71995432  0.53754229  0.49034167    -0.03300
C543        C  0.74532565  0.53917003  0.50568737    -0.08600
C544        C  0.75933657  0.56290277  0.50555330    -0.16200
H545        H  0.85164571  0.67868330  0.49862436     0.11900
H546        H  0.82734144  0.63714802  0.49674036     0.11200
H547        H  0.75449048  0.67961975  0.48791702     0.11200
H548        H  0.77846178  0.72126356  0.48951392     0.11700
H549        H  0.71589719  0.60057110  0.45839391     0.11700
H550        H  0.69146379  0.55903638  0.45809470     0.11700
H551        H  0.75476651  0.52216480  0.51731727     0.11800
H552        H  0.77856895  0.56369731  0.51817376     0.10700
C553        C  0.47283447  0.18030043  0.62652505    -0.03100
C554        C  0.49230195  0.17083430  0.65045933    -0.08900
C555        C  0.48629685  0.16588126  0.68693715    -0.16600
C556        C  0.46081217  0.17024885  0.69988604     0.25600
C557        C  0.44137031  0.17934834  0.67625075    -0.18200
C558        C  0.44724212  0.18419045  0.63997459    -0.07100
C559        C  0.45450159  0.16664219  0.73761756    -0.13600
C560        C  0.44806229  0.16595336  0.76906114    -0.13300
C561        C  0.44057011  0.16815623  0.80657603     0.25500
C562        C  0.41414711  0.16624687  0.81685788    -0.18700
C563        C  0.40678193  0.17127474  0.85278971    -0.07200
C564        C  0.42578944  0.17843800  0.87875220    -0.03300
C565        C  0.45236350  0.17928232  0.86831491    -0.08600
C566        C  0.45964528  0.17428298  0.83254228    -0.16200
H567        H  0.51219928  0.16765054  0.64132141     0.11900
H568        H  0.50157477  0.15895454  0.70509399     0.11200
H569        H  0.42159293  0.18280968  0.68590675     0.11200
H570        H  0.43151574  0.19074360  0.62238972     0.11700
H571        H  0.39916992  0.16164874  0.79690896     0.11700
H572        H  0.38618717  0.17060895  0.85987788     0.11700
H573        H  0.46756846  0.18416793  0.88773007     0.11800
H574        H  0.48012896  0.17582488  0.82495591     0.10700
C575        C  0.42166163  0.18431536  0.12683379    -0.03100
C576        C  0.44770085  0.18417185  0.13978479    -0.08900
C577        C  0.45309176  0.18002712  0.17642456    -0.16600
C578        C  0.43259487  0.17593445  0.20084834     0.25600
C579        C  0.40653492  0.17601745  0.18838942    -0.18200
C580        C  0.40107115  0.18008870  0.15150592    -0.07100
C581        C  0.43866900  0.17234832  0.23868953    -0.13600
C582        C  0.44538016  0.17077626  0.27001276    -0.13300
C583        C  0.45386499  0.17125768  0.30729342     0.25500
C584        C  0.43520918  0.17306848  0.33487461    -0.18700
C585        C  0.44325359  0.17675159  0.37072265    -0.07200
C586        C  0.47009702  0.17870796  0.37953563    -0.03300
C587        C  0.48881019  0.17556192  0.35198142    -0.08600
C588        C  0.48070393  0.17199139  0.31596586    -0.16200
H589        H  0.46398549  0.18695214  0.12140197     0.11900
H590        H  0.47330930  0.18004514  0.18572130     0.11200
H591        H  0.39048602  0.17305348  0.20715290     0.11200
H592        H  0.38083774  0.18032950  0.14243944     0.11700
H593        H  0.41441822  0.17249429  0.32853979     0.11700
H594        H  0.42846260  0.17875656  0.39154763     0.11700
H595        H  0.50956563  0.17718896  0.35805440     0.11800
H596        H  0.49532415  0.17070119  0.29476897     0.10700
C597        C  0.71476875  0.41609592  0.85802417    -0.03100
C598        C  0.74021094  0.41040777  0.84545381    -0.08900
C599        C  0.74723654  0.41627846  0.80959173    -0.16600
C600        C  0.72885359  0.42779098  0.78608454     0.25600
C601        C  0.70340840  0.43288569  0.79822841    -0.18200
C602        C  0.69638289  0.42702584  0.83376117    -0.07100
C603        C  0.73530637  0.43435162  0.74923864    -0.13600
C604        C  0.73602739  0.44057112  0.71772280    -0.13300
C605        C  0.73148212  0.44773052  0.68049397     0.25500
C606        C  0.70676926  0.44283374  0.66531598    -0.18700
C607        C  0.70153486  0.44978552  0.62948390    -0.07200
C608        C  0.72098656  0.46178010  0.60813494    -0.03300
C609        C  0.74569134  0.46706163  0.62366111    -0.08600
C610        C  0.75094419  0.45999903  0.65971849    -0.16200
H611        H  0.75478533  0.40212345  0.86357386     0.11900
H612        H  0.76697037  0.41210443  0.80035864     0.11200
H613        H  0.68893173  0.44149854  0.78017186     0.11200
H614        H  0.67646780  0.43107182  0.84220604     0.11700
H615        H  0.69145835  0.43366006  0.68126897     0.11700
H616        H  0.68213770  0.44599131  0.61861483     0.11700
H617        H  0.76098020  0.47618877  0.60768759     0.11800
H618        H  0.77009722  0.46403473  0.67130949     0.10700
C619        C  0.70138844  0.42834130  0.10835500    -0.03100
C620        C  0.68135883  0.44324957  0.12475918    -0.08900
C621        C  0.68341265  0.45092305  0.16097993    -0.16600
C622        C  0.70540384  0.44376797  0.18151667     0.25600
C623        C  0.72520046  0.42849629  0.16578815    -0.18200
C624        C  0.72321305  0.42081239  0.12941896    -0.07100
C625        C  0.70728354  0.45199702  0.21877902    -0.13600
C626        C  0.70693010  0.45898080  0.25001561    -0.13300
C627        C  0.70383867  0.46654425  0.28736709     0.25500
C628        C  0.72441113  0.47844670  0.30665446    -0.18700
C629        C  0.72121091  0.48488866  0.34334022    -0.07200
C630        C  0.69742124  0.47935922  0.36106836    -0.03300
C631        C  0.67671117  0.46805675  0.34106106    -0.08600
C632        C  0.67993529  0.46165936  0.30459505    -0.16200
H633        H  0.66398616  0.44894082  0.10974915     0.11900
H634        H  0.66783106  0.46250206  0.17296496     0.11200
H635        H  0.74226400  0.42274075  0.18151232     0.11200
H636        H  0.73901110  0.40955053  0.11752458     0.11700
H637        H  0.74299906  0.48237530  0.29352485     0.11700
H638        H  0.73754438  0.49335869  0.35810874     0.11700
H639        H  0.65799722  0.46399426  0.35368633     0.11800
H640        H  0.66381155  0.45265452  0.28989771     0.10700
C641        C  0.44802504  0.24025033  0.99922899    -0.03100
C642        C  0.44788496  0.26334360  0.97811558    -0.08900
C643        C  0.47065119  0.27848003  0.97430452    -0.16600
C644        C  0.49415875  0.27031288  0.99049828     0.25600
C645        C  0.49492417  0.24674160  0.00986172    -0.18200
C646        C  0.47222660  0.23161796  0.01364652    -0.07100
C647        C  0.51772744  0.28565193  0.98666445    -0.13600
C648        C  0.53781732  0.29807947  0.98446305    -0.13300
C649        C  0.56177768  0.31303223  0.98292786     0.25500
C650        C  0.58375154  0.30514732  0.00312650    -0.18700
C651        C  0.60665051  0.32035397  0.00292440    -0.07200
C652        C  0.60777817  0.34372050  0.98263900    -0.03300
C653        C  0.58576079  0.35113812  0.96180289    -0.08600
C654        C  0.56293738  0.33590145  0.96198787    -0.16200
H655        H  0.43024567  0.26953719  0.96408992     0.11900
H656        H  0.46998312  0.29636323  0.95838279     0.11200
H657        H  0.51320198  0.23980831  0.02157404     0.11200
H658        H  0.47402304  0.21279234  0.02695150     0.11700
H659        H  0.58304393  0.28747571  0.01947024     0.11700
H660        H  0.62317834  0.31427374  0.01944502     0.11700
H661        H  0.58615732  0.36874475  0.94538363     0.11800
H662        H  0.54609620  0.34212283  0.94611253     0.10700
C663        C  0.19397419  0.41952425  0.62134212    -0.03100
C664        C  0.16954658  0.41542102  0.63818514    -0.08900
C665        C  0.16539721  0.42380591  0.67401089    -0.16600
C666        C  0.18565238  0.43624827  0.69336171     0.25600
C667        C  0.21016909  0.43963476  0.67707757    -0.18200
C668        C  0.21432308  0.43133134  0.64151341    -0.07100
C669        C  0.18184714  0.44573883  0.72987277    -0.13600
C670        C  0.18214236  0.45417337  0.76050633    -0.13300
C671        C  0.18663000  0.46357129  0.79694751     0.25500
C672        C  0.21171890  0.46104373  0.81209493    -0.18700
C673        C  0.21647575  0.46896904  0.84772033    -0.07200
C674        C  0.19619096  0.47957165  0.86898302    -0.03300
C675        C  0.17118162  0.48291363  0.85329676    -0.08600
C676        C  0.16640573  0.47486404  0.81745256    -0.16200
H677        H  0.15348638  0.40654295  0.62329407     0.11900
H678        H  0.14634987  0.42093093  0.68638270     0.11200
H679        H  0.22609548  0.44895285  0.69181229     0.11200
H680        H  0.23351202  0.43430915  0.62969766     0.11700
H681        H  0.22759641  0.45257715  0.79647806     0.11700
H682        H  0.23602016  0.46652697  0.85883736     0.11700
H683        H  0.15517219  0.49081567  0.86915212     0.11800
H684        H  0.14691332  0.47702567  0.80599640     0.10700
C685        C  0.18399535  0.42005557  0.36962264    -0.03100
C686        C  0.15976074  0.41460463  0.35288695    -0.08900
C687        C  0.15603781  0.41988282  0.31593204    -0.16600
C688        C  0.17658197  0.43043628  0.29535495     0.25600
C689        C  0.20096207  0.43519967  0.31165428    -0.18200
C690        C  0.20465899  0.43008067  0.34849155    -0.07100
C691        C  0.17281774  0.43696196  0.25770519    -0.13600
C692        C  0.17157471  0.44322494  0.22620554    -0.13300
C693        C  0.17245140  0.45085564  0.18863468     0.25500
C694        C  0.17371499  0.43159220  0.16168706    -0.18700
C695        C  0.17711031  0.43883471  0.12548417    -0.07200
C696        C  0.17929653  0.46546364  0.11568326    -0.03300
C697        C  0.17712063  0.48476747  0.14275285    -0.08600
C698        C  0.17382747  0.47746718  0.17906229    -0.16200
H699        H  0.14355310  0.40702262  0.36866316     0.11900
H700        H  0.13708682  0.41608850  0.30356352     0.11200
H701        H  0.21705402  0.44318207  0.29596376     0.11200
H702        H  0.22368610  0.43401619  0.36047859     0.11700
H703        H  0.17270933  0.41095138  0.16874635     0.11700
H704        H  0.17843914  0.42360647  0.10508587     0.11700
H705        H  0.17902209  0.50537828  0.13608474     0.11800
H706        H  0.17304281  0.49253923  0.19975682     0.10700
C707        C  0.34542913  0.28596077  0.01484422    -0.03100
C708        C  0.35511021  0.30933262  0.03030408    -0.08900
C709        C  0.33998239  0.33223264  0.02994337    -0.16600
C710        C  0.31493153  0.33211991  0.01426920     0.25600
C711        C  0.30486402  0.30888230  0.99946449    -0.18200
C712        C  0.31997984  0.28593708  0.99975199    -0.07100
C713        C  0.29987995  0.35601665  0.01261273    -0.13600
C714        C  0.28761416  0.37622704  0.01067908    -0.13300
C715        C  0.27304831  0.40036659  0.00784940     0.25500
C716        C  0.25077983  0.40169193  0.98567313    -0.18700
C717        C  0.23651405  0.42506652  0.98303844    -0.07200
C718        C  0.24495163  0.44795722  0.00115421    -0.03300
C719        C  0.26640078  0.44574848  0.02530311    -0.08600
C720        C  0.28061389  0.42233323  0.02806159    -0.16200
H721        H  0.37441360  0.30995958  0.04263937     0.11900
H722        H  0.34792843  0.35008992  0.04159607     0.11200
H723        H  0.28549671  0.30859825  0.98718026     0.11200
H724        H  0.31204052  0.26844160  0.98720721     0.11700
H725        H  0.24417886  0.38453173  0.97086243     0.11700
H726        H  0.21857883  0.42500906  0.96725778     0.11700
H727        H  0.27177564  0.46169658  0.04312363     0.11800
H728        H  0.29723685  0.42124273  0.04643881     0.10700
C729        C  0.42776373  0.70833922  0.63692915    -0.03100
C730        C  0.40910119  0.71609663  0.66282071    -0.08900
C731        C  0.41692151  0.72206658  0.69833775    -0.16600
C732        C  0.44346934  0.72051411  0.70830854     0.25600
C733        C  0.46222127  0.71359581  0.68244769    -0.18200
C734        C  0.45447653  0.70763850  0.64704682    -0.07100
C735        C  0.45135273  0.72419776  0.74550722    -0.13600
C736        C  0.45771032  0.72504401  0.77702566    -0.13300
C737        C  0.46386540  0.72342135  0.81510582     0.25500
C738        C  0.49001016  0.72251757  0.82713328    -0.18700
C739        C  0.49566437  0.71867144  0.86399196    -0.07200
C740        C  0.47517132  0.71544946  0.88908630    -0.03300
C741        C  0.44903216  0.71702778  0.87674382    -0.08600
C742        C  0.44344625  0.72097203  0.84009168    -0.16200
H743        H  0.38842609  0.71666484  0.65596065     0.11900
H744        H  0.40220235  0.72726042  0.71822537     0.11200
H745        H  0.48280851  0.71231824  0.68981262     0.11200
H746        H  0.46944608  0.70231407  0.62765296     0.11700
H747        H  0.50598530  0.72422764  0.80796183     0.11700
H748        H  0.51595819  0.71740413  0.87262834     0.11700
H749        H  0.43286936  0.71508316  0.89553658     0.11800
H750        H  0.42315803  0.72161130  0.83114212     0.10700
C751        C  0.47508560  0.71340532  0.13744098    -0.03100
C752        C  0.44849436  0.71462518  0.14771733    -0.08900
C753        C  0.44150685  0.71792104  0.18399617    -0.16600
C754        C  0.46094304  0.72016850  0.21065989     0.25600
C755        C  0.48749908  0.71999201  0.20062723    -0.18200
C756        C  0.49455548  0.71673405  0.16417063    -0.07100
C757        C  0.45350342  0.72117095  0.24833320    -0.13600
C758        C  0.44712373  0.72057032  0.27982547    -0.13300
C759        C  0.44066989  0.71844520  0.31775468     0.25500
C760        C  0.46089151  0.71621879  0.34329931    -0.18700
C761        C  0.45501822  0.71288150  0.37993876    -0.07200
C762        C  0.42878994  0.71171450  0.39171741    -0.03300
C763        C  0.40849271  0.71449364  0.36604030    -0.08600
C764        C  0.41442956  0.71772061  0.32919803    -0.16200
H765        H  0.43305031  0.71256981  0.12768537     0.11900
H766        H  0.42091617  0.71810932  0.19133639     0.11200
H767        H  0.50273585  0.72166898  0.22106724     0.11200
H768        H  0.51514294  0.71568967  0.15709806     0.11700
H769        H  0.48124380  0.71675648  0.33484008     0.11700
H770        H  0.47101836  0.71110095  0.39920124     0.11700
H771        H  0.38814266  0.71340249  0.37427002     0.11800
H772        H  0.39859210  0.71929540  0.30962404     0.10700
C773        C  0.44913385  0.65635530  0.01442138    -0.03100
C774        C  0.42503645  0.66574295  0.00060150    -0.08900
C775        C  0.40220688  0.65067486  0.00320470    -0.16600
C776        C  0.40275078  0.62639198  0.02083316     0.25600
C777        C  0.42606269  0.61761735  0.03695130    -0.18200
C778        C  0.44894573  0.63270994  0.03434254    -0.07100
C779        C  0.37930730  0.61065017  0.02231586    -0.13600
C780        C  0.35950978  0.59765929  0.02212905    -0.13300
C781        C  0.33599856  0.58199526  0.02080576     0.25500
C782        C  0.33632143  0.55626175  0.03404542    -0.18700
C783        C  0.31367817  0.54081727  0.03222172    -0.07200
C784        C  0.29033059  0.55087364  0.01703713    -0.03300
C785        C  0.29018245  0.57683061  0.00387768    -0.08600
C786        C  0.31289334  0.59226651  0.00574883    -0.16200
H787        H  0.42346325  0.68499543  0.98847631     0.11900
H788        H  0.38406137  0.65807520  0.99165346     0.11200
H789        H  0.42654777  0.59916595  0.05159931     0.11200
H790        H  0.46648761  0.62590029  0.04805040     0.11700
H791        H  0.35409326  0.54811095  0.04575802     0.11700
H792        H  0.31438223  0.52106625  0.04302510     0.11700
H793        H  0.27270605  0.58505231  0.99155884     0.11800
H794        H  0.31248397  0.61213863  0.99522605     0.10700
C795        C  0.55001664  0.60796552  0.99566328    -0.03100
C796        C  0.54175830  0.58461395  0.01257812    -0.08900
C797        C  0.55719220  0.56195941  0.01079109    -0.16600
C798        C  0.58100442  0.56232185  0.99198578     0.25600
C799        C  0.58943201  0.58546980  0.97516525    -0.18200
C800        C  0.57407202  0.60819048  0.97706163    -0.07100
C801        C  0.59655745  0.53882573  0.98948732    -0.13600
C802        C  0.60917946  0.51888822  0.98709806    -0.13300
C803        C  0.62379841  0.49481968  0.98428654     0.25500
C804        C  0.64759390  0.49423242  0.96554356    -0.18700
C805        C  0.66201027  0.47091636  0.96348233    -0.07200
C806        C  0.65235536  0.44745184  0.97881648    -0.03300
C807        C  0.62906464  0.44883764  0.99934125    -0.08600
C808        C  0.61467647  0.47213410  0.00142551    -0.16200
H809        H  0.52356051  0.58399184  0.02763494     0.11900
H810        H  0.55053640  0.54416055  0.02401376     0.11200
H811        H  0.60780990  0.58592499  0.96046132     0.11200
H812        H  0.58080488  0.62583509  0.96361450     0.11700
H813        H  0.65531381  0.51193781  0.95322160     0.11700
H814        H  0.68113012  0.47159359  0.95090567     0.11700
H815        H  0.62241587  0.43229903  0.01519831     0.11800
H816        H  0.59675099  0.47260077  0.01716233     0.10700
C817        C  0.18870742  0.07985883  0.99708898    -0.03100
C818        C  0.21259257  0.06583654  0.99727943    -0.08900
C819        C  0.23670108  0.07905482  0.99610027    -0.16600
C820        C  0.23746616  0.10651256  0.99467899     0.25600
C821        C  0.21388989  0.12068819  0.99453075    -0.18200
C822        C  0.18972455  0.10751168  0.99572563    -0.07100
C823        C  0.26241586  0.12007927  0.99360863    -0.13600
C824        C  0.28329158  0.13143387  0.99320427    -0.13300
C825        C  0.30803542  0.14538107  0.99369404     0.25500
C826        C  0.31144837  0.16787694  0.97241535    -0.18700
C827        C  0.33489482  0.18217394  0.97440822    -0.07200
C828        C  0.35517092  0.17465944  0.99839852    -0.03300
C829        C  0.35219309  0.15094626  0.01771289    -0.08600
C830        C  0.32869347  0.13668370  0.01578121    -0.16200
H831        H  0.21283475  0.04462569  0.99851782     0.11900
H832        H  0.25477448  0.06781504  0.99634622     0.11200
H833        H  0.21416768  0.14195727  0.99348077     0.11200
H834        H  0.17191466  0.11907993  0.99543001     0.11700
H835        H  0.29587294  0.17456140  0.95457623     0.11700
H836        H  0.33701487  0.19951130  0.95765397     0.11700
H837        H  0.36801429  0.14294662  0.03378744     0.11800
H838        H  0.32663995  0.11885703  0.03158384     0.10700
C839        C  0.81907065  0.19211186  0.00437435    -0.03100
C840        C  0.83358697  0.21551947  0.00028192    -0.08900
C841        C  0.82082176  0.23986195  0.99700284    -0.16600
C842        C  0.79333791  0.24129185  0.99783639     0.25600
C843        C  0.77877142  0.21818133  0.00220981    -0.18200
C844        C  0.79146000  0.19385601  0.00542581    -0.07100
C845        C  0.77993079  0.26629890  0.99421653    -0.13600
C846        C  0.76771967  0.28665775  0.99156761    -0.13300
C847        C  0.75214248  0.31045089  0.98928010     0.25500
C848        C  0.73068128  0.31192976  0.96551134    -0.18700
C849        C  0.71490451  0.33449127  0.96454151    -0.07200
C850        C  0.71984240  0.35586259  0.98792193    -0.03300
C851        C  0.74241678  0.35469016  0.01016755    -0.08600
C852        C  0.75815351  0.33209975  0.01117545    -0.16200
H853        H  0.85480984  0.21510216  0.99918973     0.11900
H854        H  0.83240631  0.25754736  0.99367854     0.11200
H855        H  0.75751392  0.21893654  0.00306990     0.11200
H856        H  0.77952288  0.17647477  0.00887824     0.11700
H857        H  0.72601501  0.29556856  0.94785766     0.11700
H858        H  0.69861171  0.33516469  0.94562245     0.11700
H859        H  0.74853778  0.37130900  0.02621351     0.11800
H860        H  0.77508797  0.33156621  0.02903587     0.10700
C861        C  0.07887152  0.70442215  0.99158082    -0.03100
C862        C  0.10535867  0.70308514  0.00265228    -0.08900
C863        C  0.11901687  0.67922216  0.00209038    -0.16600
C864        C  0.10653928  0.65620347  0.99048550     0.25600
C865        C  0.08014510  0.65721528  0.97965987    -0.18200
C866        C  0.06640018  0.68110105  0.98022883    -0.07100
C867        C  0.12090371  0.63166542  0.98984641    -0.13600
C868        C  0.13343747  0.61145114  0.98997700    -0.13300
C869        C  0.14865266  0.58743744  0.99117398     0.25500
C870        C  0.13931357  0.56562785  0.01028267    -0.18700
C871        C  0.15424319  0.54255572  0.01230229    -0.07200
C872        C  0.17928044  0.54105080  0.99617466    -0.03300
C873        C  0.18775637  0.56267015  0.97532272    -0.08600
C874        C  0.17277242  0.58572243  0.97322121    -0.16200
H875        H  0.11564785  0.72041448  0.01192764     0.11900
H876        H  0.13938314  0.67875161  0.01070235     0.11200
H877        H  0.07019918  0.63956012  0.97064830     0.11200
H878        H  0.04612553  0.68126195  0.97136133     0.11700
H879        H  0.12034204  0.56636816  0.02345570     0.11700
H880        H  0.14558961  0.52584058  0.02564318     0.11700
H881        H  0.20617003  0.56179282  0.96079371     0.11800
H882        H  0.18005724  0.60222666  0.95765884     0.10700
C883        C  0.54406127  0.71923189  0.01459389    -0.03100
C884        C  0.56551715  0.71027192  0.03547009    -0.08900
C885        C  0.58952081  0.72374577  0.03534127    -0.16600
C886        C  0.59229087  0.74697769  0.01539003     0.25600
C887        C  0.57056266  0.75713376  0.99674983    -0.18200
C888        C  0.54658299  0.74364251  0.99682435    -0.07100
C889        C  0.61723786  0.76059077  0.01445499    -0.13600
C890        C  0.63804876  0.77206734  0.01343784    -0.13300
C891        C  0.66279418  0.78602853  0.01214400     0.25500
C892        C  0.66317015  0.81352221  0.01212462    -0.18700
C893        C  0.68706392  0.82712288  0.01067058    -0.07200
C894        C  0.71112242  0.81346064  0.00915062    -0.03300
C895        C  0.71050224  0.78577190  0.00937125    -0.08600
C896        C  0.68655792  0.77221606  0.01083702    -0.16200
H897        H  0.56388779  0.69246253  0.05134775     0.11900
H898        H  0.60594531  0.71596394  0.05069778     0.11200
H899        H  0.57211368  0.77556215  0.98220153     0.11200
H900        H  0.53004108  0.75274806  0.98345895     0.11700
H901        H  0.64495240  0.82449573  0.01314082     0.11700
H902        H  0.68651199  0.84834952  0.01053129     0.11700
H903        H  0.72844798  0.77444430  0.00837582     0.11800
H904        H  0.68659648  0.75093083  0.01088653     0.10700
loop_ 
_geom_bond_atom_site_label_1 
_geom_bond_atom_site_label_2 
_geom_bond_distance 
_geom_bond_site_symmetry_2 
_ccdc_geom_bond_type 
N1            N2   1.320       .  A
N1            C5   1.353       .  A
N1           Cu9   2.092       .  S
N2            C3   1.341       .  A
N2           Cu8   2.062       .  S
C3            C4   1.382       .  A
C3            H6   1.082       .  S
C4            C5   1.390       .  A
C4           C62   1.475   1_556  S
C5            H7   1.082   1_556  S
Cu8          N11   2.060       .  S
Cu9          N19   2.095   1_556  S
Cu10         N12   2.092       .  S
Cu10         N18   2.096       .  S
N11          N12   1.321       .  A
N11          C15   1.337       .  A
N12          C13   1.354       .  A
C13          C14   1.392       .  A
C13          H16   1.082       .  S
C14          C15   1.381       .  A
C14          C28   1.479       .  S
C15          H17   1.081       .  S
N18          N19   1.326   1_556  A
N18          C22   1.347   1_556  A
N19          C20   1.346       .  A
C20          C21   1.389       .  A
C20          H23   1.081       .  S
C21          C22   1.390       .  A
C21         C894   1.494       .  S
C22          H24   1.081       .  S
N25          N26   1.320       .  A
N25          C29   1.354       .  A
N25         Cu33   2.095       .  S
N26          C27   1.337       .  A
N26         Cu32   2.055   1_655  S
C27          C28   1.380       .  A
C27          H30   1.081       .  S
C28          C29   1.392       .  A
C29          H31   1.082       .  S
Cu32         N35   2.057       .  S
Cu33         N43   2.099   1_655  S
Cu34         N36   2.086       .  S
Cu34         N42   2.090       .  S
N35          N36   1.320       .  A
N35          C39   1.340       .  A
N36          C37   1.352       .  A
C37          C38   1.389       .  A
C37          H40   1.082   1_556  S
C38          C39   1.379       .  A
C38          C76   1.471   1_556  S
C39          H41   1.082       .  S
N42          N43   1.326       .  A
N42          C46   1.345       .  A
N43          C44   1.349       .  A
C44          C45   1.390       .  A
C44          H47   1.081       .  S
C45          C46   1.387       .  A
C45         C861   1.492       .  S
C46          H48   1.081       .  S
N49          N50   1.319       .  A
N49          C53   1.356       .  A
N49         Cu57   2.100       .  S
N50          C51   1.335       .  A
N50         Cu56   2.048       .  S
C51          C52   1.379       .  A
C51          H54   1.081       .  S
C52          C53   1.394       .  A
C52          C86   1.480       .  S
C53          H55   1.082       .  S
Cu56         N59   2.050       .  S
Cu57         N67   2.104       .  S
Cu58         N60   2.102       .  S
Cu58         N66   2.106       .  S
N59          N60   1.319       .  A
N59          C63   1.339       .  A
N60          C61   1.355   1_554  A
C61          C62   1.392   1_546  A
C61          H64   1.082       .  S
C62          C63   1.378   1_565  A
C63          H65   1.082   1_545  S
N66          N67   1.327       .  A
N66          C70   1.348       .  A
N67          C68   1.349       .  A
C68          C69   1.390       .  A
C68          H71   1.081       .  S
C69          C70   1.390       .  A
C69         C839   1.496       .  S
C70          H72   1.081       .  S
N73          N74   1.319       .  A
N73          C77   1.352   1_554  A
N73         Cu81   2.088       .  S
N74          C75   1.339       .  A
N74         Cu80   2.055       .  S
C75          C76   1.379       .  A
C75          H78   1.082       .  S
C76          C77   1.389   1_554  A
C77          H79   1.082       .  S
Cu80         N83   2.055   1_565  S
Cu81         N91   2.091   1_565  S
Cu82         N84   2.098       .  S
Cu82         N90   2.102       .  S
N83          N84   1.320       .  A
N83          C87   1.336       .  A
N84          C85   1.356       .  A
C85          C86   1.393   1_455  A
C85          H88   1.082       .  S
C86          C87   1.381   1_655  A
C87          H89   1.081   1_455  S
N90          N91   1.326       .  A
N90          C94   1.348       .  A
N91          C92   1.345   1_554  A
C92          C93   1.388       .  A
C92          H95   1.081       .  S
C93          C94   1.391   1_556  A
C93         C817   1.494       .  S
C94          H96   1.081       .  S
C97          C99   1.554   1_554  S
C97         C101   1.543       .  S
C97         C100   1.542       .  S
C97         C883   1.533       .  S
C98         C102   1.540   1_554  S
C98         C104   1.520       .  S
C98         C103   1.538       .  S
C98         C773   1.527       .  S
C99         C107   1.392       .  A
C99         C102   1.410       .  A
C100        C111   1.378       .  A
C100        C103   1.393       .  A
C101        C115   1.387       .  A
C101        C104   1.386       .  A
C102        C105   1.378       .  A
C103        C109   1.376       .  A
C104        C112   1.368       .  A
C105        N106   1.350       .  A
C105        H118   1.082       .  S
N106        C107   1.356       .  A
N106        C740   1.441       .  S
C107        H108   1.081       .  S
C109        N110   1.358   1_554  A
C109        H119   1.082   1_554  S
N110        C111   1.359   1_556  A
N110        C795   1.439       .  S
C111        H117   1.082       .  S
C112        N113   1.356       .  A
C112        H114   1.083       .  S
N113        C115   1.365       .  A
N113        C751   1.442       .  S
C115        H116   1.082       .  S
C120        C122   1.546       .  S
C120        C124   1.553   1_556  S
C120        C123   1.543   1_556  S
C120        C872   1.534       .  S
C121        C125   1.528       .  S
C121        C127   1.530   1_556  S
C121        C126   1.540   1_556  S
C121        C718   1.528   1_556  S
C122        C130   1.385       .  A
C122        C125   1.390       .  A
C123        C134   1.381       .  A
C123        C126   1.394       .  A
C124        C138   1.392       .  A
C124        C127   1.404       .  A
C125        C128   1.371       .  A
C126        C132   1.377       .  A
C127        C135   1.372       .  A
C128        N129   1.356       .  A
C128        H141   1.081       .  S
N129        C130   1.363       .  A
N129        C674   1.442       .  S
C130        H131   1.082       .  S
C132        N133   1.357       .  A
C132        H142   1.081       .  S
N133        C134   1.361       .  A
N133        C784   1.443       .  S
C134        H140   1.081       .  S
C135        N136   1.350       .  A
C135        H137   1.082       .  S
N136        C138   1.359       .  A
N136        C696   1.440       .  S
C138        H139   1.081       .  S
C143        C145   1.527   1_556  S
C143        C147   1.527       .  S
C143        C146   1.540       .  S
C143        C806   1.527       .  S
C144        C148   1.554   1_556  S
C144        C150   1.546       .  S
C144        C149   1.543       .  S
C144        C850   1.534       .  S
C145        C153   1.370       .  A
C145        C148   1.402       .  A
C146        C157   1.376       .  A
C146        C149   1.394       .  A
C147        C161   1.369       .  A
C147        C150   1.391       .  A
C148        C151   1.392       .  A
C149        C155   1.381       .  A
C150        C158   1.384       .  A
C151        N152   1.361       .  A
C151        H164   1.081       .  S
N152        C153   1.351       .  A
N152        C619   1.443       .  S
C153        H154   1.081       .  S
C155        N156   1.361       .  A
C155        H165   1.082       .  S
N156        C157   1.357       .  A
N156        C652   1.441       .  S
C157        H163   1.081       .  S
C158        N159   1.363       .  A
C158        H160   1.082       .  S
N159        C161   1.356       .  A
N159        C597   1.441       .  S
C161        H162   1.081       .  S
C166        C168   1.539   1_554  S
C166        C170   1.555       .  S
C166        C169   1.541       .  S
C166        C828   1.530   1_554  S
C167        C171   1.521   1_554  S
C167        C173   1.540       .  S
C167        C172   1.538       .  S
C167        C641   1.527   1_554  S
C168        C176   1.384       .  A
C168        C171   1.383       .  A
C169        C180   1.378       .  A
C169        C172   1.392       .  A
C170        C184   1.392       .  A
C170        C173   1.412       .  A
C171        C174   1.369       .  A
C172        C178   1.376       .  A
C173        C181   1.376       .  A
C174        N175   1.358       .  A
C174        H187   1.082       .  S
N175        C176   1.364       .  A
N175        C564   1.443       .  S
C176        H177   1.082       .  S
C178        N179   1.360       .  A
C178        H188   1.081       .  S
N179        C180   1.361       .  A
N179        C707   1.443       .  S
C180        H186   1.082       .  S
C181        N182   1.349       .  A
C181        H183   1.082       .  S
N182        C184   1.357       .  A
N182        C575   1.442       .  S
C184        H185   1.080       .  S
N189        N190   1.320       .  A
N189        C193   1.358       .  A
N189       Cu197   2.106       .  S
N190        C191   1.336       .  A
N190       Cu196   2.053       .  S
C191        C192   1.380       .  A
C191        H194   1.081       .  S
C192        C193   1.396       .  A
C192        C250   1.484   1_655  S
C193        H195   1.082       .  S
Cu196       N199   2.054       .  S
Cu197       N207   2.111       .  S
Cu198       N200   2.101       .  S
Cu198       N206   2.105       .  S
N199        N200   1.319       .  A
N199        C203   1.339       .  A
N200        C201   1.355       .  A
C201        C202   1.393       .  A
C201        H204   1.082       .  S
C202        C203   1.379       .  A
C202        C216   1.478       .  S
C203        H205   1.082       .  S
N206        N207   1.328       .  A
N206        C210   1.347       .  A
N207        C208   1.350       .  A
C208        C209   1.391       .  A
C208        H211   1.081       .  S
C209        C210   1.388       .  A
C209        C531   1.496       .  S
C210        H212   1.081       .  S
N213        N214   1.320       .  A
N213        C217   1.354       .  A
N213       Cu221   2.096       .  S
N214        C215   1.341       .  A
N214       Cu220   2.065   1_565  S
C215        C216   1.381       .  A
C215        H218   1.082       .  S
C216        C217   1.391       .  A
C217        H219   1.082       .  S
Cu220       N223   2.064       .  S
Cu221       N231   2.099   1_565  S
Cu222       N224   2.084       .  S
Cu222       N230   2.088       .  S
N223        N224   1.320       .  A
N223        C227   1.337       .  A
N224        C225   1.355       .  A
C225        C226   1.390       .  A
C225        H228   1.082       .  S
C226        C227   1.382       .  A
C226        C264   1.478       .  S
C227        H229   1.082       .  S
N230        N231   1.326       .  A
N230        C234   1.345       .  A
N231        C232   1.347       .  A
C232        C233   1.388       .  A
C232        H235   1.082       .  S
C233        C234   1.386       .  A
C233        C520   1.487       .  S
C234        H236   1.081       .  S
N237        N238   1.319       .  A
N237        C241   1.356       .  A
N237       Cu245   2.093       .  S
N238        C239   1.337       .  A
N238       Cu244   2.056       .  S
C239        C240   1.380       .  A
C239        H242   1.084       .  S
C240        C241   1.393       .  A
C240        C274   1.478       .  S
C241        H243   1.079       .  S
Cu244       N247   2.056       .  S
Cu245       N255   2.098       .  S
Cu246       N248   2.105       .  S
Cu246       N254   2.111       .  S
N247        N248   1.320       .  A
N247        C251   1.336       .  A
N248        C249   1.358       .  A
C249        C250   1.396       .  A
C249        H252   1.082       .  S
C250        C251   1.381       .  A
C251        H253   1.081   1_455  S
N254        N255   1.327       .  A
N254        C258   1.349       .  A
N255        C256   1.347       .  A
C256        C257   1.388       .  A
C256        H259   1.081       .  S
C257        C258   1.392       .  A
C257        C487   1.497       .  S
C258        H260   1.081       .  S
N261        N262   1.319       .  A
N261        C265   1.358       .  A
N261       Cu269   2.107       .  S
N262        C263   1.334       .  A
N262       Cu268   2.040   1_655  S
C263        C264   1.377       .  A
C263        H266   1.082       .  S
C264        C265   1.396       .  A
C265        H267   1.082       .  S
Cu268       N271   2.040       .  S
Cu269       N279   2.113   1_655  S
Cu270       N272   2.105       .  S
Cu270       N278   2.110       .  S
N271        N272   1.319       .  A
N271        C275   1.335   1_545  A
N272        C273   1.356       .  A
C273        C274   1.395   1_545  A
C273        H276   1.084       .  S
C274        C275   1.378       .  A
C275        H277   1.085       .  S
N278        N279   1.328       .  A
N278        C282   1.348       .  A
N279        C280   1.350       .  A
C280        C281   1.392       .  A
C280        H283   1.081       .  S
C281        C282   1.390       .  A
C281        C465   1.501       .  S
C282        H284   1.081       .  S
C285        C287   1.527       .  S
C285        C289   1.531       .  S
C285        C288   1.541       .  S
C285        C421   1.531       .  S
C286        C290   1.546       .  S
C286        C292   1.554       .  S
C286        C291   1.541       .  S
C286        C542   1.537       .  S
C287        C295   1.370       .  A
C287        C290   1.391       .  A
C288        C299   1.378       .  A
C288        C291   1.393       .  A
C289        C303   1.371       .  A
C289        C292   1.409       .  A
C290        C293   1.384       .  A
C291        C297   1.380       .  A
C292        C300   1.393       .  A
C293        N294   1.364       .  A
C293        H306   1.082       .  S
N294        C295   1.357       .  A
N294        C630   1.442       .  S
C295        H296   1.081       .  S
C297        N298   1.359       .  A
C297        H307   1.081       .  S
N298        C299   1.357       .  A
N298        C454   1.440       .  S
C299        H305   1.082       .  S
C300        N301   1.357       .  A
C300        H302   1.081       .  S
N301        C303   1.349       .  A
N301        C608   1.439       .  S
C303        H304   1.082       .  S
C308        C310   1.522       .  S
C308        C312   1.540       .  S
C308        C311   1.541       .  S
C308        C410   1.531       .  S
C309        C313   1.539       .  S
C309        C315   1.554       .  S
C309        C314   1.541       .  S
C309        C509   1.531       .  S
C310        C318   1.368       .  A
C310        C313   1.385       .  A
C311        C322   1.379       .  A
C311        C314   1.392       .  A
C312        C326   1.375       .  A
C312        C315   1.409       .  A
C313        C316   1.385       .  A
C314        C320   1.376       .  A
C315        C323   1.392       .  A
C316        N317   1.363       .  A
C316        H329   1.082       .  S
N317        C318   1.356       .  A
N317        C586   1.439       .  S
C318        H319   1.083       .  S
C320        N321   1.360       .  A
C320        H330   1.081       .  S
N321        C322   1.363       .  A
N321        C432   1.446       .  S
C322        H328   1.080       .  S
C323        N324   1.359       .  A
C323        H325   1.080       .  S
N324        C326   1.352       .  A
N324        C553   1.447       .  S
C326        H327   1.081       .  S
C331        C333   1.540       .  S
C331        C335   1.520       .  S
C331        C334   1.542       .  S
C331        C443   1.527       .  S
C332        C336   1.553       .  S
C332        C338   1.540       .  S
C332        C337   1.544       .  S
C332        C498   1.533       .  S
C333        C341   1.376       .  A
C333        C336   1.411       .  A
C334        C345   1.380       .  A
C334        C337   1.394       .  A
C335        C349   1.369       .  A
C335        C338   1.384       .  A
C336        C339   1.392       .  A
C337        C343   1.378       .  A
C338        C346   1.384       .  A
C339        N340   1.357       .  A
C339        H352   1.081       .  S
N340        C341   1.349       .  A
N340        C762   1.441       .  S
C341        H342   1.082       .  S
C343        N344   1.361       .  A
C343        H353   1.082       .  S
N344        C345   1.362       .  A
N344        C377   1.447       .  S
C345        H351   1.081       .  S
C346        N347   1.365       .  A
C346        H348   1.082       .  S
N347        C349   1.357       .  A
N347        C729   1.443       .  S
C349        H350   1.082       .  S
C354        C356   1.547       .  S
C354        C358   1.555       .  S
C354        C357   1.544       .  S
C354        C476   1.540       .  S
C355        C359   1.530       .  S
C355        C361   1.531       .  S
C355        C360   1.543       .  S
C355        C388   1.535       .  S
C356        C364   1.387       .  A
C356        C359   1.390       .  A
C357        C368   1.382       .  A
C357        C360   1.393       .  A
C358        C372   1.393       .  A
C358        C361   1.411       .  A
C359        C362   1.372       .  A
C360        C366   1.378       .  A
C361        C369   1.373       .  A
C362        N363   1.357       .  A
C362        H375   1.081       .  S
N363        C364   1.364       .  A
N363        C663   1.445       .  S
C364        H365   1.082       .  S
C366        N367   1.359       .  A
C366        H376   1.081       .  S
N367        C368   1.362       .  A
N367        C399   1.446       .  S
C368        H374   1.081       .  S
C369        N370   1.349       .  A
C369        H371   1.082       .  S
N370        C372   1.357       .  A
N370        C685   1.440       .  S
C372        H373   1.081       .  S
C377        C378   1.409       .  A
C377        C382   1.409       .  A
C378        C379   1.399       .  A
C378        H391   1.081       .  S
C379        C380   1.399       .  A
C379        H392   1.084       .  S
C380        C381   1.401       .  A
C380        C383   1.445       .  S
C381        C382   1.402       .  A
C381        H393   1.083       .  S
C382        H394   1.082       .  S
C383        C384   1.209       .  T
C384        C385   1.445       .  S
C385        C386   1.398       .  A
C385        C390   1.399       .  A
C386        C387   1.400       .  A
C386        H395   1.084       .  S
C387        C388   1.412       .  A
C387        H396   1.079       .  S
C388        C389   1.411       .  A
C389        C390   1.400       .  A
C389        H397   1.081       .  S
C390        H398   1.083       .  S
C399        C400   1.410       .  A
C399        C404   1.408       .  A
C400        C401   1.399       .  A
C400        H413   1.082       .  S
C401        C402   1.399       .  A
C401        H414   1.084       .  S
C402        C403   1.401       .  A
C402        C405   1.445       .  S
C403        C404   1.401       .  A
C403        H415   1.083       .  S
C404        H416   1.081       .  S
C405        C406   1.209       .  T
C406        C407   1.445       .  S
C407        C408   1.398       .  A
C407        C412   1.400       .  A
C408        C409   1.398       .  A
C408        H417   1.084       .  S
C409        C410   1.412       .  A
C409        H418   1.080       .  S
C410        C411   1.410       .  A
C411        C412   1.401       .  A
C411        H419   1.082       .  S
C412        H420   1.083       .  S
C421        C422   1.412       .  A
C421        C426   1.411       .  A
C422        C423   1.396       .  A
C422        H435   1.079       .  S
C423        C424   1.396       .  A
C423        H436   1.084       .  S
C424        C425   1.399       .  A
C424        C427   1.440       .  S
C425        C426   1.400       .  A
C425        H437   1.083       .  S
C426        H438   1.081       .  S
C427        C428   1.206       .  T
C428        C429   1.440       .  S
C429        C430   1.398       .  A
C429        C434   1.399       .  A
C430        C431   1.397       .  A
C430        H439   1.084       .  S
C431        C432   1.410       .  A
C431        H440   1.081       .  S
C432        C433   1.409       .  A
C433        C434   1.399       .  A
C433        H441   1.081       .  S
C434        H442   1.083       .  S
C443        C444   1.411       .  A
C443        C448   1.409       .  A
C444        C445   1.396       .  A
C444        H457   1.081       .  S
C445        C446   1.396       .  A
C445        H458   1.084       .  S
C446        C447   1.399       .  A
C446        C449   1.440       .  S
C447        C448   1.400       .  A
C447        H459   1.083       .  S
C448        H460   1.081       .  S
C449        C450   1.206       .  T
C450        C451   1.440       .  S
C451        C452   1.399       .  A
C451        C456   1.400       .  A
C452        C453   1.398       .  A
C452        H461   1.084       .  S
C453        C454   1.407       .  A
C453        H462   1.082       .  S
C454        C455   1.406       .  A
C455        C456   1.399       .  A
C455        H463   1.082       .  S
C456        H464   1.083       .  S
C465        C466   1.411       .  A
C465        C470   1.411       .  A
C466        C467   1.404       .  A
C466        H479   1.081       .  S
C467        C468   1.402       .  A
C467        H480   1.084       .  S
C468        C469   1.402       .  A
C468        C471   1.456       .  S
C469        C470   1.405       .  A
C469        H481   1.083       .  S
C470        H482   1.081       .  S
C471        C472   1.216       .  T
C472        C473   1.456       .  S
C473        C474   1.401       .  A
C473        C478   1.401       .  A
C474        C475   1.405       .  A
C474        H483   1.083       .  S
C475        C476   1.412       .  A
C475        H484   1.078       .  S
C476        C477   1.411       .  A
C477        C478   1.404       .  A
C477        H485   1.083       .  S
C478        H486   1.083       .  S
C487        C488   1.411       .  A
C487        C492   1.409       .  A
C488        C489   1.403       .  A
C488        H501   1.081       .  S
C489        C490   1.401       .  A
C489        H502   1.084       .  S
C490        C491   1.401       .  A
C490        C493   1.450       .  S
C491        C492   1.402       .  A
C491        H503   1.083       .  S
C492        H504   1.081       .  S
C493        C494   1.212       .  T
C494        C495   1.450       .  S
C495        C496   1.401       .  A
C495        C500   1.400       .  A
C496        C497   1.402       .  A
C496        H505   1.083       .  S
C497        C498   1.410       .  A
C497        H506   1.083       .  S
C498        C499   1.411       .  A
C499        C500   1.402       .  A
C499        H507   1.079       .  S
C500        H508   1.083       .  S
C509        C510   1.411       .  A
C509        C514   1.409       .  A
C510        C511   1.400       .  A
C510        H523   1.083       .  S
C511        C512   1.399       .  A
C511        H524   1.083       .  S
C512        C513   1.399       .  A
C512        C515   1.445       .  S
C513        C514   1.400       .  A
C513        H525   1.083       .  S
C514        H526   1.079       .  S
C515        C516   1.209       .  T
C516        C517   1.445       .  S
C517        C518   1.400       .  A
C517        C522   1.400       .  A
C518        C519   1.401       .  A
C518        H527   1.083       .  S
C519        C520   1.407       .  A
C519        H528   1.082       .  S
C520        C521   1.408       .  A
C521        C522   1.400       .  A
C521        H529   1.082       .  S
C522        H530   1.084       .  S
C531        C532   1.409       .  A
C531        C536   1.410       .  A
C532        C533   1.404       .  A
C532        H545   1.081       .  S
C533        C534   1.402       .  A
C533        H546   1.083       .  S
C534        C535   1.401       .  A
C534        C537   1.452       .  S
C535        C536   1.403       .  A
C535        H547   1.083       .  S
C536        H548   1.081       .  S
C537        C538   1.213       .  T
C538        C539   1.452       .  S
C539        C540   1.401       .  A
C539        C544   1.400       .  A
C540        C541   1.403       .  A
C540        H549   1.083       .  S
C541        C542   1.411       .  A
C541        H550   1.083       .  S
C542        C543   1.411       .  A
C543        C544   1.403       .  A
C543        H551   1.078       .  S
C544        H552   1.083       .  S
C553        C554   1.410       .  A
C553        C558   1.410       .  A
C554        C555   1.404       .  A
C554        H567   1.081       .  S
C555        C556   1.402       .  A
C555        H568   1.083       .  S
C556        C557   1.396       .  A
C556        C559   1.441       .  S
C557        C558   1.394       .  A
C557        H569   1.084       .  S
C558        H570   1.081       .  S
C559        C560   1.207       .  T
C560        C561   1.441       .  S
C561        C562   1.402       .  A
C561        C566   1.397       .  A
C562        C563   1.402       .  A
C562        H571   1.083       .  S
C563        C564   1.407       .  A
C563        H572   1.082       .  S
C564        C565   1.409       .  A
C565        C566   1.395       .  A
C565        H573   1.082       .  S
C566        H574   1.084       .  S
C575        C576   1.408       .  A
C575        C580   1.407       .  A
C576        C577   1.394       .  A
C576        H589   1.082       .  S
C577        C578   1.397       .  A
C577        H590   1.084       .  S
C578        C579   1.403       .  A
C578        C581   1.440       .  S
C579        C580   1.403       .  A
C579        H591   1.083       .  S
C580        H592   1.082       .  S
C581        C582   1.206       .  T
C582        C583   1.440       .  S
C583        C584   1.397       .  A
C583        C588   1.403       .  A
C584        C585   1.396       .  A
C584        H593   1.084       .  S
C585        C586   1.407       .  A
C585        H594   1.082       .  S
C586        C587   1.405       .  A
C587        C588   1.402       .  A
C587        H595   1.083       .  S
C588        H596   1.083       .  S
C597        C598   1.408       .  A
C597        C602   1.407       .  A
C598        C599   1.404       .  A
C598        H611   1.082       .  S
C599        C600   1.402       .  A
C599        H612   1.083       .  S
C600        C601   1.397       .  A
C600        C603   1.439       .  S
C601        C602   1.392       .  A
C601        H613   1.084       .  S
C602        H614   1.082       .  S
C603        C604   1.205       .  T
C604        C605   1.439       .  S
C605        C606   1.398       .  A
C605        C610   1.401       .  A
C606        C607   1.393       .  A
C606        H615   1.084       .  S
C607        C608   1.407       .  A
C607        H616   1.082       .  S
C608        C609   1.406       .  A
C609        C610   1.402       .  A
C609        H617   1.083       .  S
C610        H618   1.083       .  S
C619        C620   1.410       .  A
C619        C624   1.407       .  A
C620        C621   1.396       .  A
C620        H633   1.081       .  S
C621        C622   1.398       .  A
C621        H634   1.084       .  S
C622        C623   1.401       .  A
C622        C625   1.440       .  S
C623        C624   1.401       .  A
C623        H635   1.083       .  S
C624        H636   1.082       .  S
C625        C626   1.206       .  T
C626        C627   1.440       .  S
C627        C628   1.402       .  A
C627        C632   1.397       .  A
C628        C629   1.403       .  A
C628        H637   1.083       .  S
C629        C630   1.407       .  A
C629        H638   1.082       .  S
C630        C631   1.408       .  A
C631        C632   1.394       .  A
C631        H639   1.082       .  S
C632        H640   1.084       .  S
C641        C642   1.410       .  A
C641        C646   1.410   1_556  A
C642        C643   1.399       .  A
C642        H655   1.082       .  S
C643        C644   1.399       .  A
C643        H656   1.084       .  S
C644        C645   1.397   1_556  A
C644        C647   1.439       .  S
C645        C646   1.396       .  A
C645        H657   1.084       .  S
C646        H658   1.080       .  S
C647        C648   1.206       .  T
C648        C649   1.439       .  S
C649        C650   1.401   1_556  A
C649        C654   1.398       .  A
C650        C651   1.399       .  A
C650        H659   1.083       .  S
C651        C652   1.406   1_554  A
C651        H660   1.082       .  S
C652        C653   1.408       .  A
C653        C654   1.397       .  A
C653        H661   1.082       .  S
C654        H662   1.084       .  S
C663        C664   1.408       .  A
C663        C668   1.408       .  A
C664        C665   1.406       .  A
C664        H677   1.082       .  S
C665        C666   1.403       .  A
C665        H678   1.083       .  S
C666        C667   1.398       .  A
C666        C669   1.445       .  S
C667        C668   1.395       .  A
C667        H679   1.084       .  S
C668        H680   1.082       .  S
C669        C670   1.209       .  T
C670        C671   1.444       .  S
C671        C672   1.398       .  A
C671        C676   1.403       .  A
C672        C673   1.395       .  A
C672        H681   1.084       .  S
C673        C674   1.407       .  A
C673        H682   1.082       .  S
C674        C675   1.407       .  A
C675        C676   1.405       .  A
C675        H683   1.083       .  S
C676        H684   1.083       .  S
C685        C686   1.405       .  A
C685        C690   1.407       .  A
C686        C687   1.401       .  A
C686        H699   1.082       .  S
C687        C688   1.401       .  A
C687        H700   1.083       .  S
C688        C689   1.398       .  A
C688        C691   1.440       .  S
C689        C690   1.395       .  A
C689        H701   1.084       .  S
C690        H702   1.082       .  S
C691        C692   1.206       .  T
C692        C693   1.440       .  S
C693        C694   1.398       .  A
C693        C698   1.401       .  A
C694        C695   1.396       .  A
C694        H703   1.084       .  S
C695        C696   1.407       .  A
C695        H704   1.083       .  S
C696        C697   1.406       .  A
C697        C698   1.400       .  A
C697        H705   1.082       .  S
C698        H706   1.083       .  S
C707        C708   1.408       .  A
C707        C712   1.408   1_554  A
C708        C709   1.397       .  A
C708        H721   1.082       .  S
C709        C710   1.398       .  A
C709        H722   1.083       .  S
C710        C711   1.399   1_554  A
C710        C713   1.439       .  S
C711        C712   1.399       .  A
C711        H723   1.084       .  S
C712        H724   1.081       .  S
C713        C714   1.205       .  T
C714        C715   1.439       .  S
C715        C716   1.397   1_554  A
C715        C720   1.397       .  A
C716        C717   1.397       .  A
C716        H725   1.083       .  S
C717        C718   1.410   1_556  A
C717        H726   1.081       .  S
C718        C719   1.411       .  A
C719        C720   1.398       .  A
C719        H727   1.079       .  S
C720        H728   1.084       .  S
C729        C730   1.406       .  A
C729        C734   1.409       .  A
C730        C731   1.401       .  A
C730        H743   1.082       .  S
C731        C732   1.402       .  A
C731        H744   1.083       .  S
C732        C733   1.397       .  A
C732        C735   1.441       .  S
C733        C734   1.396       .  A
C733        H745   1.084       .  S
C734        H746   1.082       .  S
C735        C736   1.206       .  T
C736        C737   1.440       .  S
C737        C738   1.402       .  A
C737        C742   1.397       .  A
C738        C739   1.402       .  A
C738        H747   1.083       .  S
C739        C740   1.407       .  A
C739        H748   1.082       .  S
C740        C741   1.407       .  A
C741        C742   1.395       .  A
C741        H749   1.082       .  S
C742        H750   1.084       .  S
C751        C752   1.409       .  A
C751        C756   1.406       .  A
C752        C753   1.396       .  A
C752        H765   1.082       .  S
C753        C754   1.397       .  A
C753        H766   1.084       .  S
C754        C755   1.403       .  A
C754        C757   1.443       .  S
C755        C756   1.403       .  A
C755        H767   1.083       .  S
C756        H768   1.082       .  S
C757        C758   1.208       .  T
C758        C759   1.442       .  S
C759        C760   1.398       .  A
C759        C764   1.403       .  A
C760        C761   1.395       .  A
C760        H769   1.084       .  S
C761        C762   1.407       .  A
C761        H770   1.083       .  S
C762        C763   1.406       .  A
C763        C764   1.403       .  A
C763        H771   1.082       .  S
C764        H772   1.083       .  S
C773        C774   1.410       .  A
C773        C778   1.410       .  A
C774        C775   1.396       .  A
C774        H787   1.080   1_554  S
C775        C776   1.397       .  A
C775        H788   1.084   1_554  S
C776        C777   1.399       .  A
C776        C779   1.439       .  S
C777        C778   1.399       .  A
C777        H789   1.084       .  S
C778        H790   1.082       .  S
C779        C780   1.205       .  T
C780        C781   1.439       .  S
C781        C782   1.398       .  A
C781        C786   1.400       .  A
C782        C783   1.397       .  A
C782        H791   1.084       .  S
C783        C784   1.408       .  A
C783        H792   1.082       .  S
C784        C785   1.407       .  A
C785        C786   1.399       .  A
C785        H793   1.082   1_554  S
C786        H794   1.083   1_554  S
C795        C796   1.407   1_556  A
C795        C800   1.406       .  A
C796        C797   1.397       .  A
C796        H809   1.082       .  S
C797        C798   1.399   1_554  A
C797        H810   1.084       .  S
C798        C799   1.399       .  A
C798        C801   1.438       .  S
C799        C800   1.398       .  A
C799        H811   1.083       .  S
C800        H812   1.082       .  S
C801        C802   1.205       .  T
C802        C803   1.438       .  S
C803        C804   1.397       .  A
C803        C808   1.396   1_556  A
C804        C805   1.398       .  A
C804        H813   1.084       .  S
C805        C806   1.410       .  A
C805        H814   1.080       .  S
C806        C807   1.411       .  A
C807        C808   1.396   1_556  A
C807        H815   1.080   1_556  S
C808        H816   1.084       .  S
C817        C818   1.410       .  A
C817        C822   1.409       .  A
C818        C819   1.400       .  A
C818        H831   1.081       .  S
C819        C820   1.399       .  A
C819        H832   1.084       .  S
C820        C821   1.401       .  A
C820        C823   1.446       .  S
C821        C822   1.402       .  A
C821        H833   1.083       .  S
C822        H834   1.081       .  S
C823        C824   1.210       .  T
C824        C825   1.446       .  S
C825        C826   1.399       .  A
C825        C830   1.400   1_556  A
C826        C827   1.400       .  A
C826        H835   1.083       .  S
C827        C828   1.410       .  A
C827        H836   1.083       .  S
C828        C829   1.410   1_556  A
C829        C830   1.401       .  A
C829        H837   1.078       .  S
C830        H838   1.084       .  S
C839        C840   1.410       .  A
C839        C844   1.409       .  A
C840        C841   1.404   1_554  A
C840        H853   1.082   1_554  S
C841        C842   1.402       .  A
C841        H854   1.083       .  S
C842        C843   1.400   1_556  A
C842        C845   1.450       .  S
C843        C844   1.401       .  A
C843        H855   1.084       .  S
C844        H856   1.081       .  S
C845        C846   1.212       .  T
C846        C847   1.450       .  S
C847        C848   1.400       .  A
C847        C852   1.400   1_556  A
C848        C849   1.402       .  A
C848        H857   1.083       .  S
C849        C850   1.411       .  A
C849        H858   1.083       .  S
C850        C851   1.411   1_556  A
C851        C852   1.402       .  A
C851        H859   1.078       .  S
C852        H860   1.083       .  S
C861        C862   1.409   1_556  A
C861        C866   1.409       .  A
C862        C863   1.400       .  A
C862        H875   1.081       .  S
C863        C864   1.399   1_554  A
C863        H876   1.084       .  S
C864        C865   1.401       .  A
C864        C867   1.448       .  S
C865        C866   1.403       .  A
C865        H877   1.083       .  S
C866        H878   1.082       .  S
C867        C868   1.211       .  T
C868        C869   1.448       .  S
C869        C870   1.399   1_556  A
C869        C874   1.400       .  A
C870        C871   1.401       .  A
C870        H879   1.083       .  S
C871        C872   1.411   1_554  A
C871        H880   1.078       .  S
C872        C873   1.411       .  A
C873        C874   1.402       .  A
C873        H881   1.082       .  S
C874        H882   1.083       .  S
C883        C884   1.410       .  A
C883        C888   1.411   1_554  A
C884        C885   1.401       .  A
C884        H897   1.082       .  S
C885        C886   1.400       .  A
C885        H898   1.083       .  S
C886        C887   1.399   1_554  A
C886        C889   1.447       .  S
C887        C888   1.401       .  A
C887        H899   1.083       .  S
C888        H900   1.079       .  S
C889        C890   1.211       .  T
C890        C891   1.447       .  S
C891        C892   1.400       .  A
C891        C896   1.400       .  A
C892        C893   1.401       .  A
C892        H901   1.084       .  S
C893        C894   1.410       .  A
C893        H902   1.081       .  S
C894        C895   1.410       .  A
C895        C896   1.402       .  A
C895        H903   1.081       .  S
C896        H904   1.083       .  S
