geometry optimzed in LAMMPS
_audit_creation_date              2020-12-01 
_audit_creation_method            'lammps2cif' 
_symmetry_space_group_name_H-M    'P1' 
_symmetry_Int_Tables_number       1 
_symmetry_cell_setting            triclinic 
loop_ 
_symmetry_equiv_pos_as_xyz 
  x,y,z 
_cell_length_a                    37.95870717 
_cell_length_b                    29.09347751011297 
_cell_length_c                    38.584463840734394 
_cell_angle_alpha                 87.46653130764831 
_cell_angle_beta                  90.86595830630294 
_cell_angle_gamma                 90.42515663860016 
loop_ 
_atom_site_label 
_atom_site_type_symbol 
_atom_site_fract_x 
_atom_site_fract_y 
_atom_site_fract_z 
_atom_site_charge 
C1          C  0.76138488  0.07060844  0.40336029     0.30500
C2          C  0.80435428  0.01138987  0.37223411     0.30500
C3          C  0.78386265  0.09225354  0.37336079    -0.05700
C4          C  0.78831779  0.04591498  0.42658398    -0.06500
C5          C  0.74182657  0.03100195  0.38523726    -0.06400
C6          C  0.80606346  0.06248548  0.35750003    -0.05700
C7          C  0.81064028  0.01632794  0.41119058    -0.06500
C8          C  0.76364870  0.00029640  0.36917346    -0.06400
C9          C  0.82268108  0.08880389  0.33103588    -0.31800
N10         N  0.81257075  0.13367289  0.33155175     0.14700
C11         C  0.78749436  0.13523340  0.35628294    -0.31800
H12         H  0.77138224  0.16504537  0.36015506     0.16700
C13         C  0.83577729  0.00320327  0.43612747    -0.30800
N14         N  0.82838611  0.02434575  0.46597973     0.13400
C15         C  0.79916623  0.04994095  0.46027863    -0.30800
C16         C  0.74389404  0.47249633  0.34960926    -0.31000
N17         N  0.71000404  0.48626141  0.35340774     0.14000
H18         H  0.75109210  0.44805937  0.33083402     0.16600
C19         C  0.70766945  0.02299234  0.37303214    -0.31100
H20         H  0.68503900  0.04441541  0.37697665     0.16600
H21         H  0.78712771  0.07095669  0.47927172     0.16600
H22         H  0.83910428  0.07590406  0.31110874     0.16700
H23         H  0.86189097  0.47693382  0.43424223     0.16600
O24         O  0.67075273  0.17365656  0.36164414    -0.84900
O25         O  0.66148859  0.12563307  0.30531506    -0.81900
C26         C  0.62843276  0.11853396  0.30747037     0.98600
O27         O  0.60635835  0.15021092  0.31893354    -0.82000
O28         O  0.60787731  0.22134767  0.37699155    -0.84600
C29         C  0.62132010  0.25331035  0.39437733     1.03100
O30         O  0.63832511  0.28581569  0.37912384    -0.77400
O31         O  0.69956539  0.23741960  0.37059348    -0.77600
C32         C  0.68953859  0.19816768  0.38091601     1.03000
O33         O  0.70590515  0.20157093  0.29675443    -0.84900
O34         O  0.64117944  0.19328702  0.26230488    -0.82000
C35         C  0.61055314  0.20760147  0.25368926     0.98600
O36         O  0.59226214  0.22771613  0.27552729    -0.82000
O37         O  0.59393767  0.29839312  0.32463884    -0.84600
C38         C  0.61616470  0.33024328  0.31413858     1.03100
O39         O  0.64819474  0.32239098  0.31156085    -0.77400
O40         O  0.70737643  0.27700968  0.30358082    -0.77600
C41         C  0.71944281  0.24127616  0.29096858     1.03000
Cr42       Cr  0.65742295  0.18624368  0.31233414     1.93700
Cr43       Cr  0.60200252  0.22616222  0.32523872     1.93200
Cr44       Cr  0.67191021  0.27876259  0.33999650     1.39100
O45         O  0.64621053  0.23782400  0.31994073    -1.22600
C46         C  0.68562538  0.34634911  0.09801101     0.30500
C47         C  0.64396216  0.28856837  0.13667088     0.30500
C48         C  0.65914178  0.37080571  0.12122887    -0.05700
C49         C  0.66220305  0.31320627  0.07820910    -0.06500
C50         C  0.70551160  0.31394385  0.12466265    -0.06400
C51         C  0.63620941  0.34158078  0.13903835    -0.05700
C52         C  0.64088192  0.28303310  0.09726578    -0.06500
C53         C  0.68437970  0.28381169  0.14379823    -0.06400
C54         C  0.61565265  0.36953500  0.15916715    -0.31800
N55         N  0.62975987  0.41230865  0.16007148     0.14700
C56         C  0.65689231  0.41306028  0.13707610    -0.31800
H57         H  0.67634099  0.44039682  0.13492188     0.16700
C58         C  0.62432090  0.25497339  0.07344329    -0.30800
N59         N  0.63575069  0.26788434  0.04105982     0.13400
C60         C  0.65821015  0.30396863  0.04408370    -0.30800
C61         C  0.70704385  0.25266235  0.16158400    -0.31000
N62         N  0.74121675  0.26393786  0.15434241     0.14000
H63         H  0.69917860  0.22365801  0.17829875     0.16600
C64         C  0.74028444  0.30264118  0.13337125    -0.31100
H65         H  0.76365132  0.32052802  0.12473283     0.16600
H66         H  0.67201262  0.32116398  0.02277861     0.16600
H67         H  0.59434695  0.35871963  0.17592313     0.16700
H68         H  0.60669880  0.22638048  0.07927219     0.16600
O69         O  0.78799785  0.43448835  0.13835846    -0.84900
O70         O  0.79162486  0.38570203  0.19948503    -0.81900
C71         C  0.82492374  0.38048464  0.20096099     0.98600
O72         O  0.84702648  0.41495866  0.19186456    -0.82000
O73         O  0.85244296  0.98399182  0.13123306    -0.84600
C74         C  0.84074375  0.01354127  0.10886006     1.03100
O75         O  0.81624921  0.04119191  0.11611321    -0.76600
O76         O  0.75505282  0.49399863  0.12645769    -0.77600
C77         C  0.76838429  0.45724775  0.11734242     1.03000
O78         O  0.74345272  0.45918114  0.19763162    -0.84900
O79         O  0.80189683  0.45607310  0.23862475    -0.82000
C80         C  0.82896048  0.97147807  0.25158366     0.98600
O81         O  0.85009518  0.99420387  0.23249214    -0.82000
O82         O  0.85614540  0.06130946  0.17774568    -0.84600
C83         C  0.83259324  0.09287139  0.18045586     1.03100
O84         O  0.80034780  0.08474986  0.17686960    -0.77400
O85         O  0.74179654  0.03201719  0.18879466    -0.77600
C86         C  0.72962383  0.99481273  0.20256038     1.03000
Cr87       Cr  0.79408983  0.44737779  0.18842152     1.93700
Cr88       Cr  0.84934049  0.98973179  0.18207182     1.93200
Cr89       Cr  0.77962029  0.03545584  0.15321351     1.39100
O90         O  0.80479804  0.49987942  0.17956104    -1.22600
O91         O  0.65093652  0.49486928  0.33465353    -0.84900
O92         O  0.59557224  0.04721837  0.30389705    -0.81900
C93         C  0.61755662  0.07534082  0.29085251     0.98600
O94         O  0.63398653  0.06482276  0.26392255    -0.82000
O95         O  0.67094873  0.01545666  0.21444845    -0.84600
C96         C  0.69873126  0.99509860  0.22487143     1.03100
O97         O  0.70013961  0.47279013  0.25366386    -0.77400
O98         O  0.67894146  0.43590872  0.31555270    -0.77600
C99         C  0.67881639  0.47158135  0.33382839     1.03000
O100        O  0.60955380  0.41037816  0.32392283    -0.84900
O101        O  0.56149102  0.46553733  0.28616673    -0.82000
C102        C  0.54961902  0.49254577  0.26234337     0.98600
O103        O  0.56950494  0.01955319  0.24186349    -0.82000
O104        O  0.60999110  0.46862711  0.19883552    -0.84600
C105        C  0.63075631  0.43589207  0.19247645     1.03100
O106        O  0.65270323  0.42170305  0.21524568    -0.77400
O107        O  0.62028070  0.38832126  0.27288248    -0.77600
C108        C  0.60978096  0.37828170  0.30280009     1.03000
Cr109      Cr  0.60640080  0.47888017  0.30981150     1.93700
Cr110      Cr  0.62125213  0.01453050  0.23219236     1.93200
Cr111      Cr  0.66034719  0.43207718  0.26551055     1.39100
O112        O  0.62976058  0.47629376  0.26953834    -1.22600
O113        O  0.80200705  0.26413857  0.16832079    -0.84900
O114        O  0.85602409  0.30844534  0.20001186    -0.81900
C115        C  0.83585064  0.33424051  0.21600048     0.98600
O116        O  0.82039168  0.31824967  0.24307699    -0.82000
O117        O  0.77936810  0.25727310  0.28496398    -0.84600
C118        C  0.75091181  0.24474639  0.27062427     1.03100
O119        O  0.75038930  0.22780368  0.24132618    -0.77400
O120        O  0.77343562  0.20098089  0.18080075    -0.77600
C121        C  0.77335575  0.24191931  0.16795937     1.03000
O122        O  0.84157432  0.17518618  0.17501890    -0.84900
O123        O  0.89101005  0.22266845  0.21601210    -0.82000
C124        C  0.90219040  0.24303096  0.24244412     0.98600
O125        O  0.88144031  0.26368049  0.26185438    -0.82000
O126        O  0.83755611  0.19870007  0.29955887    -0.84600
C127        C  0.81444006  0.16645805  0.30219852     1.03100
O128        O  0.79091234  0.16327038  0.27930858    -0.77400
O129        O  0.82572656  0.14184981  0.22343055    -0.77600
C130        C  0.83824312  0.13856005  0.19406819     1.03000
Cr131      Cr  0.84591651  0.24098794  0.19255420     1.93700
Cr132      Cr  0.82951626  0.25805076  0.26953980     1.93200
Cr133      Cr  0.78801192  0.18623898  0.23048613     1.39100
O134        O  0.82120365  0.22889243  0.23129879    -1.22600
C135        C  0.17491079  0.09606165  0.11866590     0.30500
C136        C  0.12885966  0.03916663  0.15212471     0.30500
C137        C  0.15591338  0.11665077  0.14962109    -0.05700
C138        C  0.14445443  0.08006939  0.09635480    -0.06500
C139        C  0.19018384  0.04873566  0.13149085    -0.06400
C140        C  0.13221052  0.08846258  0.16699501    -0.05700
C141        C  0.12073406  0.05026502  0.11306971    -0.06500
C142        C  0.16832604  0.02222200  0.15210742    -0.06400
C143        C  0.11820540  0.11559552  0.19287529    -0.31800
N144        N  0.13138501  0.15959958  0.19018903     0.14700
C145        C  0.15523964  0.15959595  0.16422888    -0.31800
H146        H  0.17237818  0.18839291  0.15746761     0.16700
C147        C  0.09886660  0.03326872  0.08740446    -0.30800
N148        N  0.10917331  0.05218150  0.05618263     0.13400
C149        C  0.13742434  0.07985824  0.06160450    -0.30800
C150        C  0.19453709  0.49242036  0.17245548    -0.31000
N151        N  0.22803030  0.49654126  0.16016401     0.14000
H152        H  0.18863880  0.47390064  0.19640158     0.16600
C153        C  0.22349809  0.02856727  0.13268925    -0.31100
H154        H  0.24652246  0.04072706  0.11872559     0.16600
H155        H  0.15299149  0.09651928  0.04132757     0.16600
H156        H  0.10101972  0.10370490  0.21347193     0.16700
H157        H  0.07849237  0.51104629  0.09119111     0.16600
O158        O  0.25098512  0.20656219  0.16988246    -0.84900
O159        O  0.30715571  0.15519334  0.18984649    -0.81900
C160        C  0.33539996  0.14313205  0.20417776     0.98600
O161        O  0.35801544  0.17478079  0.21099858    -0.82000
O162        O  0.36053829  0.24448032  0.15252133    -0.84600
C163        C  0.35013503  0.27815967  0.13302329     1.03100
O164        O  0.32981389  0.30797799  0.14548620    -0.77400
O165        O  0.27327843  0.26174473  0.13570993    -0.77600
C166        C  0.25780847  0.22451835  0.13949029     1.03000
O167        O  0.25746687  0.24475034  0.24180388    -0.84900
O168        O  0.31154367  0.19256471  0.25857119    -0.82000
C169        C  0.33387169  0.21973866  0.27218591     0.98600
O170        O  0.34868108  0.25062966  0.25360610    -0.82000
O171        O  0.35618060  0.31934434  0.20219302    -0.84600
C172        C  0.33026511  0.34384957  0.21157285     1.03100
O173        O  0.30076817  0.32598415  0.21454300    -0.77400
O174        O  0.23819502  0.28624634  0.19821156    -0.77600
C175        C  0.23382317  0.26925021  0.22872721     1.03000
Cr176      Cr  0.28245173  0.20209067  0.21374495     1.93700
Cr177      Cr  0.35381640  0.24703530  0.20360383     1.93200
Cr178      Cr  0.28692426  0.29349451  0.17530645     1.39100
O179        O  0.30802702  0.24602471  0.19639128    -1.22600
C180        C  0.26073273  0.34351422  0.42133905     0.30500
C181        C  0.30670198  0.28511246  0.39145795     0.30500
C182        C  0.28309389  0.36416054  0.39052893    -0.05700
C183        C  0.28845925  0.32100889  0.44555413    -0.06500
C184        C  0.24355285  0.30040429  0.40550844    -0.06400
C185        C  0.30704482  0.33532056  0.37593993    -0.05700
C186        C  0.31210886  0.29156304  0.43106464    -0.06500
C187        C  0.26654440  0.27306710  0.38772196    -0.06400
C188        C  0.32273346  0.36095544  0.34859906    -0.31800
N189        N  0.31036445  0.40487898  0.34730312     0.14700
C190        C  0.28498051  0.40611166  0.37180867    -0.31800
H191        H  0.26762306  0.43500952  0.37470516     0.16700
C192        C  0.33526300  0.27765923  0.45802378    -0.30800
N193        N  0.32568575  0.29786324  0.48791198     0.13400
C194        C  0.29678567  0.32369180  0.48019303    -0.30800
C195        C  0.24535667  0.24530706  0.36705758    -0.31000
N196        N  0.21112692  0.25021308  0.37576797     0.14000
H197        H  0.25375598  0.22553435  0.34576991     0.16600
C198        C  0.21066405  0.28071741  0.40089647    -0.31100
H199        H  0.18806873  0.28275529  0.41752742     0.16600
H200        H  0.28290528  0.34373671  0.49856315     0.16600
H201        H  0.33960783  0.34770312  0.32910576     0.16700
H202        H  0.35779729  0.25551225  0.45572063     0.16600
O203        O  0.17737594  0.44725250  0.38583704    -0.84900
O204        O  0.16651651  0.39636667  0.32691828    -0.81900
C205        C  0.13312617  0.39019614  0.32675310     0.98600
O206        O  0.11147829  0.42293978  0.33726410    -0.82000
O207        O  0.11118422  0.99118877  0.39614762    -0.84600
C208        C  0.12233169  0.02392397  0.41423838     1.03100
O209        O  0.14543247  0.05241118  0.40252490    -0.77400
O210        O  0.20958354  0.50912304  0.38900358    -0.77600
C211        C  0.19735663  0.47328867  0.40330133     1.03000
O212        O  0.21232499  0.47491366  0.31871211    -0.84900
O213        O  0.14895313  0.46715939  0.28509634    -0.82000
C214        C  0.11981432  0.48445376  0.27457668     0.98600
O215        O  0.10067858  0.00576165  0.29503579    -0.82000
O216        O  0.09913363  0.06900770  0.34654535    -0.84600
C217        C  0.12113759  0.10125668  0.33735779     1.03100
O218        O  0.15357681  0.09520201  0.33702269    -0.77400
O219        O  0.21230148  0.05119639  0.32412636    -0.77600
C220        C  0.22370583  0.01612390  0.30987651     1.03000
Cr221      Cr  0.16403459  0.45833827  0.33521739     1.93700
Cr222      Cr  0.10802678  0.99837242  0.34465737     1.93200
Cr223      Cr  0.17847686  0.04988848  0.36259594     1.39100
O224        O  0.15271952  0.50980979  0.34232564    -1.22600
O225        O  0.15331866  0.26287664  0.35522207    -0.84900
O226        O  0.10098659  0.31767850  0.32685469    -0.81900
C227        C  0.12083297  0.34602483  0.31066940     0.98600
O228        O  0.13353714  0.33500099  0.28163615    -0.82000
O229        O  0.17174887  0.28166412  0.23429670    -0.84600
C230        C  0.20071298  0.26913154  0.24836564     1.03100
O231        O  0.20093233  0.24789972  0.27772588    -0.77400
O232        O  0.18006829  0.20234302  0.33769342    -0.77600
C233        C  0.18017615  0.23741672  0.35587062     1.03000
O234        O  0.11060191  0.18038371  0.34402623    -0.84900
O235        O  0.06239596  0.23565996  0.30805403    -0.82000
C236        C  0.05032779  0.25752133  0.28154870     0.98600
O237        O  0.07035557  0.28301824  0.26287428    -0.82000
O238        O  0.11080961  0.22346597  0.22274441    -0.84600
C239        C  0.13337819  0.19177789  0.21814753     1.03100
O240        O  0.15982058  0.18889180  0.23785464    -0.77400
O241        O  0.12575184  0.15561494  0.29425434    -0.77600
C242        C  0.11359436  0.14742028  0.32388150     1.03000
Cr243      Cr  0.10840042  0.24859858  0.33033392     1.93700
Cr244      Cr  0.12195035  0.27909997  0.25317608     1.93200
Cr245      Cr  0.16393385  0.20158780  0.28770240     1.39100
O246        O  0.13149005  0.24384370  0.29030531    -1.22600
O247        O  0.28793664  0.50876732  0.17640347    -0.84900
O248        O  0.34076845  0.06273370  0.19599874    -0.81900
C249        C  0.33699675  0.09368993  0.21771702     0.98600
O250        O  0.32899506  0.08288696  0.24922667    -0.82000
O251        O  0.28242399  0.03074389  0.29543631    -0.84600
C252        C  0.25160941  0.02092199  0.28459010     1.03100
O253        O  0.24715734  0.50028005  0.25585495    -0.77400
O254        O  0.26161999  0.44888033  0.19922779    -0.77600
C255        C  0.26055528  0.48377214  0.17877899     1.03000
O256        O  0.33148715  0.42382062  0.19323623    -0.84900
O257        O  0.38321739  0.47966146  0.21676741    -0.82000
C258        C  0.39856407  0.49661579  0.24245538     0.98600
O259        O  0.38096695  0.01537320  0.26445705    -0.82000
O260        O  0.33693610  0.46216713  0.30866007    -0.84600
C261        C  0.31090664  0.43622435  0.31704854     1.03100
O262        O  0.28359163  0.43839181  0.29883394    -0.77400
O263        O  0.31356079  0.40105405  0.24482433    -0.77600
C264        C  0.32909561  0.39274222  0.21746429     1.03000
Cr265      Cr  0.33500099  0.49308441  0.19925285     1.93700
Cr266      Cr  0.33077343  0.02068396  0.27610744     1.93200
Cr267      Cr  0.27984518  0.45055819  0.24829739     1.39100
O268        O  0.31541058  0.48966839  0.24126582    -1.22600
C269        C  0.20640543  0.46324435  0.44051355    -0.04900
C270        C  0.24235656  0.46497649  0.44817716    -0.02000
C271        C  0.26053629  0.42284898  0.44729837     0.03000
C272        C  0.24056478  0.38194336  0.43884290    -0.04900
C273        C  0.20307799  0.38409581  0.44491205    -0.02000
C274        C  0.18994695  0.42518533  0.45588131     0.03000
C275        C  0.26048763  0.50893704  0.44758048     0.37600
C276        C  0.17506174  0.35922522  0.42883628     0.37600
C277        C  0.18115234  0.42650112  0.49205638     0.36100
C278        C  0.29871117  0.42487084  0.44690067     0.36100
N279        N  0.17469311  0.42732931  0.52122983    -0.38800
N280        N  0.32898170  0.42738918  0.44420376    -0.38800
N281        N  0.14957736  0.34460734  0.41643378    -0.38200
N282        N  0.27491788  0.54413422  0.44682901    -0.38200
C283        C  0.34169087  0.21816100  0.31037066    -0.04900
C284        C  0.36693310  0.24905410  0.32427851    -0.02000
C285        C  0.36149295  0.26580104  0.35749268     0.03000
C286        C  0.33177478  0.25049260  0.37597681    -0.04900
C287        C  0.31912492  0.20630004  0.36872896    -0.02000
C288        C  0.32095100  0.19203606  0.33436936     0.03000
C289        C  0.39743375  0.26433204  0.30463535     0.37600
C290        C  0.30114678  0.17888337  0.39539280     0.37600
C291        C  0.29896753  0.15426202  0.32371181     0.36100
C292        C  0.38508263  0.29943097  0.37213108     0.36100
N293        N  0.28060591  0.12469873  0.31541390    -0.38800
N294        N  0.40382214  0.32650711  0.38371438    -0.38800
N295        N  0.28680692  0.15720103  0.41680617    -0.38200
N296        N  0.42200878  0.27618908  0.28915569    -0.38200
C297        C  0.35158969  0.28908367  0.02170324    -0.04900
C298        C  0.35748109  0.24590235  0.03882512    -0.02000
C299        C  0.36416789  0.24320799  0.07519382     0.03000
C300        C  0.35940459  0.28248504  0.09513217    -0.04900
C301        C  0.35930025  0.32597435  0.07724476    -0.02000
C302        C  0.35812327  0.32880714  0.04063543     0.03000
C303        C  0.35579133  0.20445363  0.01949713     0.37600
C304        C  0.36064770  0.36789834  0.09624324     0.37600
C305        C  0.36536305  0.37211901  0.02224278     0.36100
C306        C  0.37848403  0.20146836  0.09128949     0.36100
N307        N  0.37296197  0.40661674  0.00818938    -0.38800
N308        N  0.39170719  0.16890899  0.10373456    -0.38800
N309        N  0.36143629  0.40135737  0.11139747    -0.38200
N310        N  0.34320273  0.17594552  0.50679865    -0.38200
C311        C  0.24959903  0.20096152  0.10779703    -0.04900
C312        C  0.21689043  0.21005725  0.09157253    -0.02000
C313        C  0.19294663  0.17291451  0.08832955     0.03000
C314        C  0.20210172  0.12971420  0.10514269    -0.04900
C315        C  0.23590342  0.12656921  0.12114089    -0.02000
C316        C  0.26122772  0.15605071  0.10871484     0.03000
C317        C  0.20680220  0.25720411  0.08329407     0.37600
C318        C  0.23951512  0.11351893  0.15813898     0.37600
C319        C  0.29759048  0.14395812  0.11480555     0.36100
C320        C  0.15777674  0.18232007  0.07518315     0.36100
N321        N  0.32586618  0.13060976  0.11985170    -0.38800
N322        N  0.12976802  0.19123723  0.06489925    -0.38800
N323        N  0.24167666  0.10323363  0.18743491    -0.38200
N324        N  0.19904912  0.29500731  0.07666112    -0.38200
C325        C  0.10210691  0.00536989  0.16794645    -0.04900
C326        C  0.07609567  0.02317371  0.18857685    -0.02000
C327        C  0.07857974  0.01361639  0.22450170     0.03000
C328        C  0.10627241  0.98432565  0.23736436    -0.04900
C329        C  0.12365266  0.45095027  0.21523738    -0.02000
C330        C  0.11829123  0.45943254  0.17942403     0.03000
C331        C  0.05127454  0.05616193  0.17346168     0.37600
C332        C  0.14838932  0.41578028  0.22710671     0.37600
C333        C  0.13208751  0.42926629  0.15407687     0.36100
C334        C  0.05425300  0.03552383  0.24706108     0.36100
N335        N  0.14323527  0.40529585  0.13381439    -0.38800
N336        N  0.03454174  0.05277146  0.26492519    -0.38800
N337        N  0.16991687  0.38934976  0.23528212    -0.38200
N338        N  0.03160004  0.08275467  0.16140287    -0.38200
C339        C  0.09661575  0.04285118  0.02172333    -0.04900
C340        C  0.09899440  0.08390485  0.49591201    -0.02000
C341        C  0.10471719  0.07635869  0.46077290     0.03000
C342        C  0.10828383  0.03099741  0.44954305    -0.04900
C343        C  0.10345911  0.49487656  0.47428613    -0.02000
C344        C  0.10058022  0.50266174  0.51011222     0.03000
C345        C  0.09299982  0.13024180  0.50670863     0.37600
C346        C  0.10022440  0.44850785  0.46237883     0.37600
C347        C  0.08858414  0.46355050  0.03326361     0.36100
C348        C  0.10746206  0.11578333  0.43650200     0.36100
N349        N  0.08582265  0.43187453  0.05227810    -0.38800
N350        N  0.11001350  0.14756997  0.41758665    -0.38800
N351        N  0.09700605  0.41146033  0.45300309    -0.38200
N352        N  0.07061140  0.15868787  0.02085272    -0.38200
C353        C  0.94039257  0.24548835  0.25059560    -0.04900
C354        C  0.95866341  0.28755089  0.24515262    -0.02000
C355        C  0.99406251  0.29196029  0.25627394     0.03000
C356        C  0.01207666  0.25369101  0.27195697    -0.04900
C357        C  0.99347904  0.21146957  0.27737426    -0.02000
C358        C  0.95766945  0.20777170  0.26722711     0.03000
C359        C  0.94094378  0.32664424  0.22814554     0.37600
C360        C  0.01102335  0.17140439  0.29301504     0.37600
C361        C  0.93804801  0.16572091  0.27514477     0.36100
C362        C  0.01121163  0.33671302  0.25290422     0.36100
N363        N  0.92209861  0.13251840  0.28174788    -0.38800
N364        N  0.02476901  0.37245348  0.25035525    -0.38800
N365        N  0.02496086  0.13950917  0.30567355    -0.38200
N366        N  0.92714086  0.35798882  0.21450492    -0.38200
C367        C  0.51131021  0.49390496  0.25565723    -0.04900
C368        C  0.49354572  0.45486546  0.24362214    -0.02000
C369        C  0.45655796  0.45506508  0.23955706     0.03000
C370        C  0.43751822  0.49553900  0.24549330    -0.04900
C371        C  0.45497111  0.03373609  0.26008612    -0.02000
C372        C  0.49154231  0.03103573  0.26591192     0.03000
C373        C  0.51367338  0.41507107  0.23462695     0.37600
C374        C  0.43644073  0.07389701  0.27131876     0.37600
C375        C  0.50921093  0.06449084  0.28712788     0.36100
C376        C  0.43825943  0.41317072  0.23062379     0.36100
N377        N  0.52295664  0.09105031  0.30434599    -0.38800
N378        N  0.42385590  0.37949740  0.22375753    -0.38800
N379        N  0.42188288  0.10613165  0.28007454    -0.38200
N380        N  0.53038444  0.38408611  0.22706754    -0.38200
C381        C  0.70725226  0.37564340  0.07244493    -0.04900
C382        C  0.74218351  0.36327705  0.06620267    -0.02000
C383        C  0.76844900  0.39461456  0.07540556     0.03000
C384        C  0.75764690  0.43904620  0.08370399    -0.04900
C385        C  0.72532831  0.45482683  0.06908402    -0.02000
C386        C  0.69859144  0.42192327  0.06507244     0.03000
C387        C  0.75104130  0.31698315  0.05741567     0.37600
C388        C  0.71847781  0.50343845  0.06313057     0.37600
C389        C  0.66293778  0.43479270  0.05534773     0.36100
C390        C  0.80331864  0.37750601  0.08374261     0.36100
N391        N  0.63441548  0.44491041  0.04742031    -0.38800
N392        N  0.82989206  0.36034820  0.09120499    -0.38800
N393        N  0.71304959  0.54226301  0.05805033    -0.38200
N394        N  0.75961781  0.28014579  0.05151008    -0.38200
C395        C  0.59682443  0.20642418  0.21753958    -0.04900
C396        C  0.58199882  0.24796186  0.20595865    -0.02000
C397        C  0.60638971  0.27567748  0.18909883     0.03000
C398        C  0.62299595  0.25663922  0.16076930    -0.04900
C399        C  0.62638628  0.20778160  0.16180928    -0.02000
C400        C  0.61502523  0.18272863  0.19212102     0.03000
C401        C  0.55308341  0.26824066  0.22373846     0.37600
C402        C  0.64529554  0.18456339  0.13544496     0.37600
C403        C  0.61878275  0.13350706  0.19539574     0.36100
C404        C  0.62959219  0.30032693  0.21241735     0.36100
N405        N  0.62102963  0.09389365  0.19585440    -0.38800
N406        N  0.64895277  0.31849866  0.23086346    -0.38800
N407        N  0.66071926  0.16575628  0.11471117    -0.38200
N408        N  0.52968312  0.28335981  0.23825012    -0.38200
C409        C  0.62144950  0.25037121  0.43307783    -0.04900
C410        C  0.59069682  0.24362313  0.45315055    -0.02000
C411        C  0.59346377  0.24486593  0.49000233     0.03000
C412        C  0.63003646  0.24646222  0.00828489    -0.04900
C413        C  0.65651693  0.23805292  0.48536180    -0.02000
C414        C  0.65407797  0.25304737  0.45067934     0.03000
C415        C  0.55654376  0.24142703  0.43617623     0.37600
C416        C  0.69017524  0.22463489  0.50060485     0.37600
C417        C  0.68169686  0.28291987  0.43717539     0.36100
C418        C  0.56527560  0.24792234  0.01339074     0.36100
N419        N  0.70226745  0.30960742  0.42706185    -0.38800
N420        N  0.54051270  0.25115414  0.03021805    -0.38800
N421        N  0.72023700  0.21730234  0.01391776    -0.38200
N422        N  0.52921079  0.23960840  0.42259748    -0.38200
C423        C  0.70132722  0.17953354  0.41496340    -0.04900
C424        C  0.73682737  0.18687246  0.42443910    -0.02000
C425        C  0.75771216  0.14793780  0.42991601     0.03000
C426        C  0.74180216  0.10473099  0.42413891    -0.04900
C427        C  0.70588296  0.09963860  0.43184274    -0.02000
C428        C  0.68488730  0.13879247  0.42757181     0.03000
C429        C  0.75376980  0.23155532  0.42020076     0.37600
C430        C  0.69138786  0.05600583  0.44442141     0.37600
C431        C  0.64694299  0.13596011  0.43024679     0.36100
C432        C  0.79562141  0.15344508  0.43251928     0.36100
N433        N  0.61661569  0.13369962  0.43260170    -0.38800
N434        N  0.82578358  0.15907999  0.43259193    -0.38800
N435        N  0.67956483  0.02123941  0.45450320    -0.38200
N436        N  0.76872612  0.26623228  0.41678961    -0.38200
C437        C  0.83024027  0.97780060  0.35779757    -0.04900
C438        C  0.81702104  0.93656842  0.34565508    -0.02000
C439        C  0.81693175  0.93165747  0.30972530     0.03000
C440        C  0.83675049  0.96384887  0.28899985    -0.04900
C441        C  0.86569586  0.48613238  0.30626591    -0.02000
C442        C  0.86335522  0.49031316  0.34229361     0.03000
C443        C  0.79986659  0.90374881  0.36928349     0.37600
C444        C  0.89491763  0.50743045  0.28777975     0.37600
C445        C  0.88840616  0.51737902  0.36151751     0.36100
C446        C  0.79455570  0.89669081  0.29506651     0.36100
N447        N  0.90833587  0.53893155  0.37708563    -0.38800
N448        N  0.77552796  0.86940371  0.28421469    -0.38800
N449        N  0.91852207  0.52417308  0.27324744    -0.38200
N450        N  0.78626360  0.87744859  0.38816738    -0.38200
C451        C  0.85363594  0.01361905  0.00013388    -0.04900
C452        C  0.85678062  0.47942521  0.01981562    -0.02000
C453        C  0.86229682  0.47944019  0.05603869     0.03000
C454        C  0.85420483  0.01494832  0.07278238    -0.04900
C455        C  0.85508001  0.05666226  0.05277581    -0.02000
C456        C  0.85864182  0.05540998  0.01667856     0.03000
C457        C  0.85534059  0.43644046  0.00242527     0.37600
C458        C  0.85291095  0.10054936  0.06902138     0.37600
C459        C  0.87076463  0.09556242  0.99695112     0.36100
C460        C  0.87846047  0.44052028  0.07439472     0.36100
N461        N  0.88308199  0.12728786  0.98249534    -0.38800
N462        N  0.89318933  0.41071905  0.08907419    -0.38800
N463        N  0.85087169  0.13557598  0.08193164    -0.38200
N464        N  0.85296388  0.39900105  0.48569928    -0.38200
C465        C  0.76487504  0.06204683  0.90765431     0.30500
C466        C  0.80688549  0.00343103  0.87451943     0.30500
C467        C  0.78758583  0.08462732  0.87800240    -0.05700
C468        C  0.79162035  0.03545234  0.93010608    -0.06500
C469        C  0.74458473  0.02383796  0.88837786    -0.06400
C470        C  0.80911095  0.05499977  0.86117667    -0.05700
C471        C  0.81354720  0.00617472  0.91374537    -0.06500
C472        C  0.76585455  0.99354983  0.87127347    -0.06400
C473        C  0.82429169  0.08114625  0.83382025    -0.31800
N474        N  0.81414131  0.12590651  0.83445391     0.14700
C475        C  0.79029836  0.12755801  0.86037812    -0.31800
H476        H  0.77384098  0.15696289  0.86418176     0.16700
C477        C  0.83983783  0.99328086  0.93781379    -0.30800
N478        N  0.83345776  0.01412410  0.96805276     0.13400
C479        C  0.80379371  0.03929299  0.96340788    -0.30800
C480        C  0.74099502  0.47045620  0.85096725    -0.31000
N481        N  0.70661145  0.48242480  0.85459719     0.14000
H482        H  0.74929906  0.44695716  0.83199499     0.16600
C483        C  0.70991651  0.01614178  0.87706527    -0.31100
H484        H  0.68737869  0.03701235  0.88249460     0.16600
H485        H  0.79285945  0.06103305  0.98257088     0.16600
H486        H  0.83927345  0.06811250  0.81291710     0.16700
H487        H  0.86057531  0.48202482  0.93429521     0.16600
O488        O  0.66845958  0.16526611  0.86413200    -0.84900
O489        O  0.65878921  0.11719037  0.80891667    -0.81900
C490        C  0.62568016  0.11126190  0.81137760     0.98600
O491        O  0.60405202  0.14359893  0.82240997    -0.82000
O492        O  0.60732196  0.21597314  0.87948414    -0.84600
C493        C  0.62214822  0.24774562  0.89616830     1.03100
O494        O  0.63920463  0.27936107  0.88003066    -0.77400
O495        O  0.69922523  0.22779878  0.87147525    -0.77600
C496        C  0.68909811  0.18867147  0.88226157     1.03000
O497        O  0.70411010  0.19036938  0.79937301    -0.84900
O498        O  0.64009365  0.18478319  0.76481593    -0.82000
C499        C  0.61012248  0.20061527  0.75559263     0.98600
O500        O  0.59132187  0.22009334  0.77744964    -0.82000
O501        O  0.59392244  0.29165452  0.82587024    -0.84600
C502        C  0.61646699  0.32248934  0.81451089     1.03100
O503        O  0.64843818  0.31388873  0.81211135    -0.77400
O504        O  0.70623693  0.26611063  0.80367734    -0.77600
C505        C  0.71767672  0.22951433  0.79191847     1.03000
Cr506      Cr  0.65545911  0.17762015  0.81491946     1.93700
Cr507      Cr  0.60091578  0.21947392  0.82749725     1.93200
Cr508      Cr  0.67188668  0.27004551  0.84078607     1.39100
O509        O  0.64518643  0.22960790  0.82182984    -1.22600
C510        C  0.68813051  0.33683025  0.59561589     0.30500
C511        C  0.64586020  0.28052219  0.63510101     0.30500
C512        C  0.66351066  0.36215217  0.62063677    -0.05700
C513        C  0.66252776  0.30598681  0.57633033    -0.06500
C514        C  0.70776758  0.30165216  0.62053786    -0.06400
C515        C  0.64001010  0.33365340  0.63825005    -0.05700
C516        C  0.64109863  0.27610205  0.59568058    -0.06500
C517        C  0.68616619  0.27326076  0.64070404    -0.06400
C518        C  0.61945433  0.36180667  0.65814620    -0.31800
N519        N  0.63409459  0.40407604  0.65960792     0.14700
C520        C  0.66156710  0.40449290  0.63679587    -0.31800
H521        H  0.68091805  0.43189942  0.63448221     0.16700
C522        C  0.62304208  0.24954797  0.57184196    -0.30800
N523        N  0.63346358  0.26351210  0.53931096     0.13400
C524        C  0.65673212  0.29863944  0.54224307    -0.30800
C525        C  0.70797156  0.24208017  0.65944133    -0.31000
N526        N  0.74227756  0.25089621  0.65133005     0.14000
H527        H  0.69949755  0.21555272  0.67799570     0.16600
C528        C  0.74214035  0.28760601  0.62835190    -0.31100
H529        H  0.76616498  0.30294468  0.61835067     0.16600
H530        H  0.67020938  0.31600293  0.52078958     0.16600
H531        H  0.59761995  0.35133701  0.67435116     0.16700
H532        H  0.60519191  0.22119897  0.57766298     0.16600
O533        O  0.78499469  0.42746523  0.64356639    -0.84900
O534        O  0.78827105  0.38103375  0.70535688    -0.81900
C535        C  0.82137755  0.37445421  0.70428102     0.98600
O536        O  0.84350484  0.40808121  0.69341264    -0.82000
O537        O  0.84728780  0.97911261  0.62979834    -0.84600
C538        C  0.83615076  0.01063567  0.60867024     1.03100
O539        O  0.81286975  0.03914785  0.61751540    -0.76600
O540        O  0.75178106  0.48633553  0.63038848    -0.77600
C541        C  0.76542843  0.44940373  0.62211397     1.03000
O542        O  0.74066189  0.45497977  0.70127028    -0.84900
O543        O  0.79903184  0.45307066  0.74261387    -0.82000
C544        C  0.82867404  0.96673480  0.75177700     0.98600
O545        O  0.85023129  0.98725996  0.73174924    -0.82000
O546        O  0.85554449  0.05496938  0.67708685    -0.84600
C547        C  0.83319484  0.08758453  0.68131859     1.03100
O548        O  0.80053584  0.08123457  0.67947182    -0.77400
O549        O  0.74032492  0.03115571  0.69260422    -0.77600
C550        C  0.72763902  0.99406666  0.70619989     1.03000
Cr551      Cr  0.79116453  0.44227729  0.69288161     1.93700
Cr552      Cr  0.84676922  0.98385568  0.68111187     1.93200
Cr553      Cr  0.77733715  0.03384853  0.65581367     1.39100
O554        O  0.80219708  0.49424520  0.68225216    -1.22600
O555        O  0.64767190  0.48902142  0.83456091    -0.84900
O556        O  0.59404203  0.03967442  0.80949579    -0.81900
C557        C  0.61436900  0.06866643  0.79508620     0.98600
O558        O  0.62985501  0.05913320  0.76745936    -0.82000
O559        O  0.66841918  0.01211141  0.71820765    -0.84600
C560        C  0.69702374  0.99412445  0.72899130     1.03100
O561        O  0.69764714  0.47150646  0.75654146    -0.77400
O562        O  0.67701244  0.43065376  0.81678080    -0.77600
C563        C  0.67600834  0.46658737  0.83459664     1.03000
O564        O  0.60816510  0.40251108  0.82332938    -0.84900
O565        O  0.55853677  0.45618280  0.78658759    -0.82000
C566        C  0.54593071  0.48211453  0.76242465     0.98600
O567        O  0.56714151  0.01047270  0.74630658    -0.82000
O568        O  0.61003505  0.45807299  0.69814399    -0.84600
C569        C  0.63325475  0.42811432  0.69196668     1.03100
O570        O  0.65529507  0.41619378  0.71540360    -0.77400
O571        O  0.62232987  0.37987764  0.77289176    -0.77600
C572        C  0.61045337  0.37024911  0.80246158     1.03000
Cr573      Cr  0.60353191  0.47081178  0.80956617     1.93700
Cr574      Cr  0.61869537  0.00840113  0.73627086     1.93200
Cr575      Cr  0.66011723  0.42686497  0.76632463     1.39100
O576        O  0.62720351  0.46857374  0.76938464    -1.22600
O577        O  0.80156200  0.25508679  0.66944154    -0.84900
O578        O  0.85335506  0.30276408  0.70224713    -0.81900
C579        C  0.83215644  0.32741805  0.71803554     0.98600
O580        O  0.81623095  0.31010898  0.74436991    -0.82000
O581        O  0.77666065  0.24753519  0.78530356    -0.84600
C582        C  0.74902891  0.23153233  0.77165114     1.03100
O583        O  0.74918913  0.21178689  0.74336741    -0.77400
O584        O  0.77421069  0.19055895  0.68191121    -0.77600
C585        C  0.77384277  0.23107157  0.66793174     1.03000
O586        O  0.84294832  0.16931952  0.67602229    -0.84900
O587        O  0.89030215  0.21864780  0.71864858    -0.82000
C588        C  0.90023090  0.23936792  0.74535792     0.98600
O589        O  0.87827265  0.25837255  0.76445727    -0.82000
O590        O  0.83601708  0.19278428  0.80241327    -0.84600
C591        C  0.81505007  0.15814935  0.80460003     1.03100
O592        O  0.79337013  0.15140109  0.78051106    -0.77400
O593        O  0.83067383  0.13583640  0.72496799    -0.77600
C594        C  0.84114259  0.13252031  0.69494498     1.03000
Cr595      Cr  0.84533242  0.23473347  0.69450299     1.93700
Cr596      Cr  0.82670486  0.25068434  0.77119493     1.93200
Cr597      Cr  0.78964560  0.17527518  0.73181935     1.39100
O598        O  0.82019601  0.22102474  0.73292983    -1.22600
C599        C  0.17466445  0.10039304  0.62011078     0.30500
C600        C  0.12918071  0.04149709  0.65242209     0.30500
C601        C  0.15504318  0.11963825  0.65114815    -0.05700
C602        C  0.14499999  0.08372884  0.59732907    -0.06500
C603        C  0.19077967  0.05361207  0.63290150    -0.06400
C604        C  0.13138682  0.09056069  0.66789227    -0.05700
C605        C  0.12148596  0.05307259  0.61325689    -0.06500
C606        C  0.16896014  0.02609718  0.65287729    -0.06400
C607        C  0.11692293  0.11674609  0.69413821    -0.31800
N608        N  0.13028946  0.16078440  0.69240490     0.14700
C609        C  0.15426226  0.16185919  0.66661968    -0.31800
H610        H  0.17129463  0.19099631  0.66047713     0.16700
C611        C  0.10034669  0.03647541  0.58681073    -0.30800
N612        N  0.11125184  0.05599174  0.55586187     0.13400
C613        C  0.13904759  0.08397855  0.56245672    -0.30800
C614        C  0.18981774  0.49635353  0.67601600    -0.31000
N615        N  0.22396354  0.49927494  0.66482157     0.14000
H616        H  0.18259545  0.47828238  0.69976941     0.16600
C617        C  0.22439918  0.03441310  0.63470564    -0.31100
H618        H  0.24754559  0.04710853  0.62127498     0.16600
H619        H  0.15519853  0.10129662  0.54294320     0.16600
H620        H  0.09921984  0.10414118  0.71411055     0.16700
H621        H  0.07891042  0.51590836  0.59036416     0.16600
O622        O  0.24874751  0.21199941  0.66859089    -0.84900
O623        O  0.30498064  0.15851025  0.69050509    -0.81900
C624        C  0.33326338  0.14683086  0.70529410     0.98600
O625        O  0.35557527  0.17898177  0.71170282    -0.82000
O626        O  0.35809820  0.25015566  0.65345723    -0.84600
C627        C  0.34736688  0.28419974  0.63443934     1.03100
O628        O  0.32809023  0.31406352  0.64802617    -0.77400
O629        O  0.27186590  0.26775928  0.63544485    -0.77600
C630        C  0.25569166  0.23092072  0.63856047     1.03000
O631        O  0.25260878  0.24878589  0.74038760    -0.84900
O632        O  0.30668408  0.19606248  0.75852024    -0.82000
C633        C  0.32942845  0.22206672  0.77266727     0.98600
O634        O  0.34491015  0.25316846  0.75483715    -0.82000
O635        O  0.35290025  0.32347065  0.70526923    -0.84600
C636        C  0.32684605  0.34776329  0.71471274     1.03100
O637        O  0.29699856  0.33050833  0.71598760    -0.77400
O638        O  0.23495727  0.29154233  0.69673364    -0.77600
C639        C  0.22970913  0.27443751  0.72697266     1.03000
Cr640      Cr  0.27899436  0.20626838  0.71316724     1.93700
Cr641      Cr  0.35079700  0.25126991  0.70487983     1.93200
Cr642      Cr  0.28444166  0.29867359  0.67587075     1.39100
O643        O  0.30504388  0.25052401  0.69694899    -1.22600
C644        C  0.26717646  0.34861259  0.92810499     0.30500
C645        C  0.30692118  0.28862880  0.89357755     0.30500
C646        C  0.29129937  0.37119207  0.89958879    -0.05700
C647        C  0.29260851  0.31934658  0.95011922    -0.06500
C648        C  0.24574784  0.31296788  0.90710995    -0.06400
C649        C  0.31157967  0.34068248  0.88162818    -0.05700
C650        C  0.31339552  0.28907822  0.93326904    -0.06500
C651        C  0.26603343  0.28261893  0.88946901    -0.06400
C652        C  0.32383056  0.36575429  0.85222148    -0.31800
N653        N  0.31323745  0.41059146  0.85256947     0.14700
C654        C  0.29184439  0.41307810  0.88047950    -0.31800
H655        H  0.27487635  0.44199538  0.88457624     0.16700
C656        C  0.33868715  0.27348054  0.95773359    -0.30800
N657        N  0.33274557  0.29349882  0.98858454     0.13400
C658        C  0.30446622  0.32125069  0.98373648    -0.30800
C659        C  0.24278941  0.25857858  0.86815013    -0.31000
N660        N  0.20909304  0.27177707  0.87322887     0.14000
H661        H  0.24981447  0.23504426  0.84860059     0.16600
C662        C  0.21083598  0.30636970  0.89580324    -0.31100
H663        H  0.18835656  0.32654789  0.90203608     0.16600
H664        H  0.29404755  0.34304554  0.00312837     0.16600
H665        H  0.33628517  0.35114220  0.83023921     0.16700
H666        H  0.36069171  0.25138964  0.95282806     0.16600
O667        O  0.16686202  0.44347421  0.87913529    -0.84900
O668        O  0.15767125  0.40333946  0.81775842    -0.81900
C669        C  0.12467469  0.39614402  0.82068922     0.98600
O670        O  0.10335031  0.42723126  0.83411449    -0.82000
O671        O  0.10726416  0.99762044  0.89525975    -0.84600
C672        C  0.11878618  0.02877915  0.91455362     1.03100
O673        O  0.14201627  0.05794745  0.90400568    -0.77400
O674        O  0.19807085  0.50452647  0.88996892    -0.77600
C675        C  0.18657121  0.46554453  0.89931607     1.03000
O676        O  0.20482306  0.47809274  0.81693547    -0.84900
O677        O  0.14177922  0.47838567  0.78089900    -0.82000
C678        C  0.11170289  0.49390457  0.77189709     0.98600
O679        O  0.09982067  0.01368801  0.79394873    -0.82000
O680        O  0.09764926  0.07684078  0.84665082    -0.84600
C681        C  0.12045323  0.10889827  0.83932076     1.03100
O682        O  0.15268524  0.10151685  0.83895861    -0.77400
O683        O  0.21109686  0.05555943  0.82698649    -0.77600
C684        C  0.22225169  0.02013419  0.81286006     1.03000
Cr685      Cr  0.15538356  0.46284238  0.83007293     1.93700
Cr686      Cr  0.10547842  0.00590459  0.84408007     1.93200
Cr687      Cr  0.17624681  0.05523742  0.86470233     1.39100
O688        O  0.14477539  0.51310573  0.84107419    -1.22600
O689        O  0.14979151  0.27829830  0.85344652    -0.84900
O690        O  0.09366143  0.32354969  0.82265993    -0.81900
C691        C  0.11296285  0.35172998  0.80585228     0.98600
O692        O  0.12684919  0.33968402  0.77771971    -0.82000
O693        O  0.16713415  0.28605429  0.73185767    -0.84600
C694        C  0.19658185  0.27648881  0.74645547     1.03100
O695        O  0.19735918  0.25886971  0.77691147    -0.77400
O696        O  0.17866772  0.21822337  0.83856734    -0.77600
C697        C  0.17798164  0.25551243  0.85451409     1.03000
O698        O  0.11162057  0.18910174  0.84629414    -0.84900
O699        O  0.06087304  0.23675783  0.80839611    -0.82000
C700        C  0.04755377  0.25777590  0.78216995     0.98600
O701        O  0.06585126  0.28415092  0.76244738    -0.82000
O702        O  0.10754698  0.22415775  0.72370165    -0.84600
C703        C  0.13116650  0.19363151  0.71996596     1.03100
O704        O  0.15799661  0.19364437  0.73944414    -0.77400
O705        O  0.12620487  0.16322688  0.79684615    -0.77600
C706        C  0.11402952  0.15564486  0.82641387     1.03000
Cr707      Cr  0.10561304  0.25623879  0.82980458     1.93700
Cr708      Cr  0.11726629  0.28223877  0.75153362     1.93200
Cr709      Cr  0.16254703  0.21088188  0.78873087     1.39100
O710        O  0.12850023  0.25057088  0.78982505    -1.22600
O711        O  0.28375334  0.51187070  0.68128022    -0.84900
O712        O  0.34261262  0.06569534  0.69932072    -0.81900
C713        C  0.33566415  0.09729356  0.71981604     0.98600
O714        O  0.32609042  0.08668697  0.75097122    -0.82000
O715        O  0.28149799  0.03372875  0.79870115    -0.84600
C716        C  0.25058849  0.02421290  0.78786175     1.03100
O717        O  0.24461365  0.50270646  0.76009626    -0.77400
O718        O  0.25778733  0.45187429  0.70468139    -0.77600
C719        C  0.25639378  0.48675014  0.68402863     1.03000
O720        O  0.32719988  0.42760042  0.69758805    -0.84900
O721        O  0.37886188  0.48265654  0.72135268    -0.82000
C722        C  0.39451200  0.50078964  0.74633910     0.98600
O723        O  0.38017721  0.02039538  0.76584082    -0.82000
O724        O  0.33549638  0.47036815  0.81315888    -0.84600
C725        C  0.31099690  0.44222660  0.82220627     1.03100
O726        O  0.28309980  0.44224262  0.80456080    -0.77400
O727        O  0.31182709  0.40436398  0.74976969    -0.77600
C728        C  0.32611437  0.39631508  0.72170437     1.03000
Cr729      Cr  0.33111299  0.49662417  0.70342188     1.93700
Cr730      Cr  0.32973248  0.02467385  0.77840998     1.93200
Cr731      Cr  0.27762863  0.45364016  0.75353111     1.39100
O732        O  0.31223427  0.49391504  0.74558321    -1.22600
C733        C  0.19936023  0.44469907  0.93251524    -0.04900
C734        C  0.23226607  0.45993252  0.94565627    -0.02000
C735        C  0.25753462  0.42621013  0.95370467     0.03000
C736        C  0.24711742  0.38001528  0.95120086    -0.04900
C737        C  0.21177550  0.36978759  0.95821405    -0.02000
C738        C  0.18686191  0.40110877  0.94459569     0.03000
C739        C  0.24187990  0.50830059  0.94532960     0.37600
C740        C  0.20188889  0.32538076  0.97368223     0.37600
C741        C  0.15163206  0.38504695  0.93687841     0.36100
C742        C  0.29411276  0.43872503  0.95878402     0.36100
N743        N  0.12449788  0.36965365  0.92957290    -0.38800
N744        N  0.32322783  0.44991703  0.96193074    -0.38800
N745        N  0.19413004  0.29000188  0.98631361    -0.38200
N746        N  0.24962809  0.54686908  0.94497831    -0.38200
C747        C  0.33711199  0.21883122  0.81071456    -0.04900
C748        C  0.36392413  0.24711110  0.82485942    -0.02000
C749        C  0.35895837  0.26498893  0.85767430     0.03000
C750        C  0.32847734  0.25243660  0.87586984    -0.04900
C751        C  0.31308182  0.20957236  0.86854842    -0.02000
C752        C  0.31461373  0.19487219  0.83430946     0.03000
C753        C  0.39557216  0.25864164  0.80574096     0.37600
C754        C  0.29256554  0.18441528  0.89464645     0.37600
C755        C  0.29079569  0.15915090  0.82321633     0.36100
C756        C  0.38433221  0.29607667  0.87264802     0.36100
N757        N  0.27120330  0.13119490  0.81441275    -0.38800
N758        N  0.40451784  0.32083316  0.88486696    -0.38800
N759        N  0.27591811  0.16460398  0.91536629    -0.38200
N760        N  0.42109737  0.26746970  0.79075515    -0.38200
C761        C  0.34185761  0.29463416  0.52252315    -0.04900
C762        C  0.34948308  0.25183687  0.53975814    -0.02000
C763        C  0.35869215  0.24982617  0.57567587     0.03000
C764        C  0.35405030  0.28876495  0.59590589    -0.04900
C765        C  0.35058486  0.33200599  0.57800959    -0.02000
C766        C  0.34672443  0.33482352  0.54151145     0.03000
C767        C  0.34616146  0.20973542  0.52135216     0.37600
C768        C  0.35171715  0.37411352  0.59689550     0.37600
C769        C  0.34958022  0.37941641  0.52375793     0.36100
C770        C  0.37611335  0.20953857  0.59073455     0.36100
N771        N  0.35354181  0.41608837  0.51162636    -0.38800
N772        N  0.39159716  0.17822537  0.60234458    -0.38800
N773        N  0.35238826  0.40777226  0.61181120    -0.38200
N774        N  0.35456144  0.17125050  0.00406029    -0.38200
C775        C  0.24676260  0.20842429  0.60659962    -0.04900
C776        C  0.21298013  0.21666673  0.59245951    -0.02000
C777        C  0.18939216  0.17892430  0.59070527     0.03000
C778        C  0.20045318  0.13563082  0.60611219    -0.04900
C779        C  0.23495159  0.13319980  0.62015127    -0.02000
C780        C  0.25917209  0.16378177  0.60674229     0.03000
C781        C  0.20137779  0.26362272  0.58590555     0.37600
C782        C  0.23971664  0.12071843  0.65711033     0.37600
C783        C  0.29588155  0.15309878  0.61224636     0.36100
C784        C  0.15278916  0.18785239  0.58208180     0.36100
N785        N  0.32444801  0.14084463  0.61722378    -0.38800
N786        N  0.12347431  0.19619374  0.57637294    -0.38800
N787        N  0.24199781  0.11071401  0.68644602    -0.38200
N788        N  0.19225881  0.30120437  0.58069220    -0.38200
C789        C  0.10332289  0.00611653  0.66786098    -0.04900
C790        C  0.07591515  0.02232287  0.68753971    -0.02000
C791        C  0.07702971  0.01249410  0.72350292     0.03000
C792        C  0.10583254  0.98634303  0.73750982    -0.04900
C793        C  0.11317012  0.45976619  0.71306257    -0.02000
C794        C  0.10894689  0.46851211  0.67730580     0.03000
C795        C  0.04907188  0.05094158  0.67091944     0.37600
C796        C  0.13642377  0.42295199  0.72475871     0.37600
C797        C  0.12249939  0.43801471  0.65205742     0.36100
C798        C  0.04868347  0.02743692  0.74487654     0.36100
N799        N  0.13338778  0.41386753  0.63178371    -0.38800
N800        N  0.02546478  0.03813532  0.76178373    -0.38800
N801        N  0.15743005  0.39533044  0.73166259    -0.38200
N802        N  0.02743909  0.07328940  0.65727469    -0.38200
C803        C  0.10006119  0.04686562  0.52074807    -0.04900
C804        C  0.09105411  0.08040918  0.99809048    -0.02000
C805        C  0.09676582  0.07572023  0.96254213     0.03000
C806        C  0.10502274  0.03215589  0.95018274    -0.04900
C807        C  0.09150673  0.49661742  0.97309877    -0.02000
C808        C  0.09192014  0.50296952  0.00931003     0.03000
C809        C  0.08018387  0.12406033  0.01089271     0.37600
C810        C  0.07900369  0.45355425  0.96009741     0.37600
C811        C  0.09820404  0.46413416  0.53503058     0.36100
C812        C  0.09441033  0.11584231  0.93893255     0.36100
N813        N  0.09626775  0.43324228  0.55487804    -0.38800
N814        N  0.09254887  0.14806546  0.92032871    -0.38800
N815        N  0.06688780  0.41986504  0.95024747    -0.38200
N816        N  0.08772866  0.16756651  0.51428107    -0.38200
C817        C  0.93818558  0.24380544  0.75445472    -0.04900
C818        C  0.95156548  0.28633432  0.76600311    -0.02000
C819        C  0.98723842  0.29048880  0.77585498     0.03000
C820        C  0.00969244  0.25239593  0.77446192    -0.04900
C821        C  0.99622722  0.20954380  0.76465850    -0.02000
C822        C  0.96077941  0.20543992  0.75376616     0.03000
C823        C  0.92895181  0.32629322  0.76746976     0.37600
C824        C  0.01887439  0.16957935  0.76659597     0.37600
C825        C  0.94750916  0.16145227  0.74276054     0.36100
C826        C  0.00050569  0.33329917  0.78923698     0.36100
N827        N  0.93699583  0.12643138  0.73375257    -0.38800
N828        N  0.01099102  0.36717356  0.80034703    -0.38800
N829        N  0.03732480  0.13810732  0.76898631    -0.38200
N830        N  0.91096880  0.35809007  0.76897786    -0.38200
C831        C  0.50686239  0.48606049  0.75781261    -0.04900
C832        C  0.48396220  0.44914768  0.76800349    -0.02000
C833        C  0.44709980  0.45453027  0.76508538     0.03000
C834        C  0.43291174  0.49540784  0.75000329    -0.04900
C835        C  0.45584490  0.03268537  0.74214519    -0.02000
C836        C  0.49244768  0.02969702  0.74774379     0.03000
C837        C  0.49785952  0.40550324  0.78154918     0.37600
C838        C  0.44006074  0.07652030  0.73155539     0.37600
C839        C  0.51345988  0.07160365  0.74494378     0.36100
C840        C  0.42360224  0.41840233  0.77825610     0.36100
N841        N  0.53013505  0.10504744  0.74271306    -0.38800
N842        N  0.40477834  0.38993079  0.78905493    -0.38800
N843        N  0.42744664  0.11138116  0.72303542    -0.38200
N844        N  0.50874815  0.37065751  0.79249145    -0.38200
C845        C  0.70916738  0.36585475  0.56910099    -0.04900
C846        C  0.74491159  0.35633163  0.56540398    -0.02000
C847        C  0.76881310  0.38692965  0.57996528     0.03000
C848        C  0.75567025  0.43013789  0.58878613    -0.04900
C849        C  0.72431896  0.44568099  0.57188017    -0.02000
C850        C  0.69976670  0.41198162  0.56262861     0.03000
C851        C  0.75615001  0.31455485  0.55009087     0.37600
C852        C  0.71608429  0.49414347  0.56772263     0.37600
C853        C  0.66498508  0.42355935  0.54941267     0.36100
C854        C  0.80258657  0.36978511  0.59225982     0.36100
N855        N  0.63730034  0.43275203  0.53834202    -0.38800
N856        N  0.82802988  0.35307487  0.60363065    -0.38800
N857        N  0.70974125  0.53292924  0.56417679    -0.38200
N858        N  0.76607498  0.28193382  0.53732768    -0.38200
C859        C  0.59850019  0.20272603  0.71874340    -0.04900
C860        C  0.58621115  0.24587728  0.70760821    -0.02000
C861        C  0.61138058  0.27053809  0.68960787     0.03000
C862        C  0.62491112  0.25011006  0.66036257    -0.04900
C863        C  0.62623463  0.20116507  0.66183261    -0.02000
C864        C  0.61560694  0.17754749  0.69314749     0.03000
C865        C  0.55944694  0.27020523  0.72563689     0.37600
C866        C  0.64271140  0.17640336  0.63471619     0.37600
C867        C  0.62086705  0.12873862  0.69792099     0.36100
C868        C  0.63678053  0.29396936  0.71152471     0.36100
N869        N  0.62475831  0.08936324  0.69941347    -0.38800
N870        N  0.65756276  0.31153595  0.72885560    -0.38800
N871        N  0.65606985  0.15641202  0.61326563    -0.38200
N872        N  0.53780339  0.28948403  0.73986914    -0.38200
C873        C  0.62340257  0.24631416  0.93494994    -0.04900
C874        C  0.59313817  0.24001375  0.95580225    -0.02000
C875        C  0.59626846  0.24402968  0.99244938     0.03000
C876        C  0.62706457  0.24317511  0.50632035    -0.04900
C877        C  0.65949796  0.24168015  0.98732784    -0.02000
C878        C  0.65636711  0.25144210  0.95180441     0.03000
C879        C  0.55882372  0.23523000  0.93950240     0.37600
C880        C  0.69337015  0.22945736  0.00252230     0.37600
C881        C  0.68478726  0.27710806  0.93535448     0.36100
C882        C  0.56264747  0.25178313  0.51062724     0.36100
N883        N  0.70627332  0.30062136  0.92290906    -0.38800
N884        N  0.53815038  0.25793835  0.52725499    -0.38800
N885        N  0.71674600  0.21225466  0.51261119    -0.38200
N886        N  0.53139918  0.23146907  0.92638895    -0.38200
C887        C  0.70336534  0.16818010  0.91488765    -0.04900
C888        C  0.73884518  0.17722057  0.92408970    -0.02000
C889        C  0.75997030  0.13952906  0.93366307     0.03000
C890        C  0.74538822  0.09539267  0.92953502    -0.04900
C891        C  0.70947218  0.08974808  0.93644992    -0.02000
C892        C  0.68751714  0.12734332  0.92859370     0.03000
C893        C  0.75594021  0.22104934  0.91589674     0.37600
C894        C  0.69600429  0.04645011  0.95088062     0.37600
C895        C  0.64956826  0.12234468  0.92958808     0.36100
C896        C  0.79752626  0.14613619  0.93815032     0.36100
N897        N  0.61923259  0.11830326  0.93029647    -0.38800
N898        N  0.82744137  0.15322417  0.93997722    -0.38800
N899        N  0.68533226  0.01186600  0.96258542    -0.38200
N900        N  0.77105003  0.25484417  0.90899094    -0.38200
C901        C  0.83238751  0.97043350  0.85856668    -0.04900
C902        C  0.81861884  0.92991590  0.84584438    -0.02000
C903        C  0.81769820  0.92623674  0.80979371     0.03000
C904        C  0.83718078  0.95888027  0.78905413    -0.04900
C905        C  0.86220922  0.48853348  0.80851739    -0.02000
C906        C  0.85965055  0.49405743  0.84437948     0.03000
C907        C  0.80120383  0.89691565  0.86914181     0.37600
C908        C  0.88940738  0.51297973  0.78907899     0.37600
C909        C  0.88347982  0.52405130  0.86262748     0.36100
C910        C  0.79418181  0.89251620  0.79516028     0.36100
N911        N  0.90240494  0.54823710  0.87712566    -0.38800
N912        N  0.77395719  0.86647758  0.78460095    -0.38800
N913        N  0.91114353  0.53223239  0.77339006    -0.38200
N914        N  0.78723061  0.87058181  0.88771983    -0.38200
C915        C  0.84560434  0.01999734  0.49948545    -0.04900
C916        C  0.85430589  0.47470994  0.51922884    -0.02000
C917        C  0.85789966  0.47297862  0.55578494     0.03000
C918        C  0.84888956  0.01405207  0.57229312    -0.04900
C919        C  0.85192712  0.05730778  0.55463948    -0.02000
C920        C  0.85248965  0.05983097  0.51815311     0.03000
C921        C  0.85358684  0.43264422  0.50062445     0.37600
C922        C  0.85628093  0.09866472  0.57398267     0.37600
C923        C  0.86204953  0.10250729  0.50002763     0.36100
C924        C  0.87354480  0.43326743  0.57345345     0.36100
N925        N  0.87176996  0.13672178  0.48695037    -0.38800
N926        N  0.88841846  0.40282639  0.58711872    -0.38800
N927        N  0.86015625  0.13160747  0.58939874    -0.38200
N928        N  0.85403683  0.40200115  0.98854590    -0.38200
C929        C  0.76615288  0.56821684  0.40491965     0.30500
C930        C  0.80798934  0.50780866  0.37349371     0.30500
C931        C  0.78893232  0.58937401  0.37507685    -0.05700
C932        C  0.79271140  0.54275866  0.42803522    -0.06500
C933        C  0.74587519  0.52934471  0.38658029    -0.06400
C934        C  0.81060204  0.55915617  0.35892564    -0.05700
C935        C  0.81450980  0.51241584  0.41267650    -0.06500
C936        C  0.76701237  0.49809745  0.37036599    -0.06400
C937        C  0.82686466  0.58545323  0.33206869    -0.31800
N938        N  0.81686202  0.63050254  0.33264052     0.14700
C939        C  0.79238262  0.63219497  0.35785426    -0.31800
H940        H  0.77626104  0.66197192  0.36177142     0.16700
C941        C  0.83963948  0.49916323  0.43781154    -0.30800
N942        N  0.83268735  0.52099213  0.46758440     0.13400
C943        C  0.80379960  0.54715429  0.46158093    -0.30800
C944        C  0.74128758  0.97379840  0.34841916    -0.31000
N945        N  0.70716047  0.98661633  0.35199621     0.14000
H946        H  0.74916197  0.94958242  0.32978412     0.16600
C947        C  0.71139337  0.52237288  0.37469084    -0.31100
H948        H  0.68914961  0.54417517  0.37920924     0.16600
H949        H  0.79212843  0.56895820  0.48027041     0.16600
H950        H  0.84279132  0.57236903  0.31183808     0.16700
H951        H  0.85819168  0.98127184  0.43251895     0.16600
O952        O  0.67096290  0.67303234  0.36391445    -0.84900
O953        O  0.66103797  0.62696979  0.30732703    -0.81900
C954        C  0.62817646  0.61942666  0.31038269     0.98600
O955        O  0.60616740  0.65057817  0.32272029    -0.82000
O956        O  0.60762388  0.72242371  0.38033411    -0.84600
C957        C  0.61993886  0.75544576  0.39724969     1.03100
O958        O  0.63715803  0.78763260  0.38186674    -0.77400
O959        O  0.69786322  0.73753055  0.37531297    -0.77600
C960        C  0.68943183  0.69690771  0.38387444     1.03000
O961        O  0.70547486  0.70159011  0.29941483    -0.84900
O962        O  0.64028740  0.69551440  0.26527161    -0.82000
C963        C  0.60944107  0.70955226  0.25720866     0.98600
O964        O  0.59092352  0.72777619  0.27960410    -0.82000
O965        O  0.59372434  0.79869071  0.32710766    -0.84600
C966        C  0.61587652  0.83018073  0.31575046     1.03100
O967        O  0.64821382  0.82280985  0.31421566    -0.77400
O968        O  0.70864270  0.77642692  0.30807083    -0.77600
C969        C  0.72023792  0.74067069  0.29483853     1.03000
Cr970      Cr  0.65696492  0.68707188  0.31505011     1.93700
Cr971      Cr  0.60162889  0.72654320  0.32879267     1.93200
Cr972      Cr  0.67156377  0.77923774  0.34359353     1.39100
O973        O  0.64586906  0.73841178  0.32336291    -1.22600
C974        C  0.68491979  0.84291489  0.09664386     0.30500
C975        C  0.64372456  0.78622130  0.13668512     0.30500
C976        C  0.65875572  0.86806501  0.11979861    -0.05700
C977        C  0.66097232  0.80924283  0.07762461    -0.06500
C978        C  0.70513064  0.81086758  0.12345006    -0.06400
C979        C  0.63592216  0.83928283  0.13796830    -0.05700
C980        C  0.63991931  0.77943587  0.09746289    -0.06500
C981        C  0.68413592  0.78148260  0.14332289    -0.06400
C982        C  0.61518508  0.86746066  0.15766290    -0.31800
N983        N  0.62930669  0.91014281  0.15831456     0.14700
C984        C  0.65648579  0.91059445  0.13533650    -0.31800
H985        H  0.67592238  0.93792107  0.13300479     0.16700
C986        C  0.62213798  0.75161090  0.07423447    -0.30800
N987        N  0.63236271  0.76439940  0.04139511     0.13400
C988        C  0.65533802  0.80018828  0.04367284    -0.30800
C989        C  0.70675251  0.75138260  0.16215590    -0.31000
N990        N  0.74095471  0.76246481  0.15486564     0.14000
H991        H  0.69879230  0.72342257  0.17981326     0.16600
C992        C  0.73998171  0.79984231  0.13244570    -0.31100
H993        H  0.76338153  0.81718408  0.12321714     0.16600
H994        H  0.66832019  0.81744520  0.02188798     0.16600
H995        H  0.59404599  0.85677017  0.17466231     0.16700
H996        H  0.60436202  0.72341359  0.08073360     0.16600
O997        O  0.78807284  0.93052288  0.13812517    -0.84900
O998        O  0.79173562  0.88329204  0.20015436    -0.81900
C999        C  0.82508624  0.87893512  0.20228734     0.98600
O1000       O  0.84696424  0.91350673  0.19276472    -0.82000
O1001       O  0.85270175  0.48657908  0.13138053    -0.84600
C1002       C  0.84128859  0.51692050  0.10952648     1.03100
O1003       O  0.81669598  0.54432244  0.11698941    -0.76600
O1004       O  0.75515590  0.99001130  0.12561499    -0.77600
C1005       C  0.76846661  0.95298738  0.11686458     1.03000
O1006       O  0.74321995  0.95592308  0.19692954    -0.84900
O1007       O  0.80131440  0.95442725  0.23844959    -0.82000
C1008       C  0.82988905  0.47207785  0.25180067     0.98600
O1009       O  0.85116523  0.49478677  0.23284570    -0.82000
O1010       O  0.85705166  0.56267402  0.17851486    -0.84600
C1011       C  0.83368500  0.59443014  0.18120433     1.03100
O1012       O  0.80137763  0.58692413  0.17782520    -0.77400
O1013       O  0.74237124  0.53533015  0.18997625    -0.77600
C1014       C  0.73004316  0.49811224  0.20361849     1.03000
Cr1015     Cr  0.79391161  0.94467881  0.18821325     1.93700
Cr1016     Cr  0.84983658  0.49133962  0.18225321     1.93200
Cr1017     Cr  0.78012419  0.53854161  0.15417162     1.39100
O1018       O  0.80432636  0.99730367  0.17889662    -1.22600
O1019       O  0.64858275  0.99450198  0.33237274    -0.84900
O1020       O  0.59658028  0.54728853  0.30757249    -0.81900
C1021       C  0.61756550  0.57619045  0.29389758     0.98600
O1022       O  0.63364051  0.56638788  0.26654944    -0.82000
O1023       O  0.67116535  0.51831154  0.21637061    -0.84600
C1024       C  0.69932167  0.49828823  0.22639969     1.03100
O1025       O  0.69907969  0.96979622  0.25219500    -0.77400
O1026       O  0.67710161  0.93520293  0.31430989    -0.77600
C1027       C  0.67647822  0.97125210  0.33216894     1.03000
O1028       O  0.60735436  0.91053101  0.32256038    -0.84900
O1029       O  0.56005117  0.96532144  0.28280567    -0.82000
C1030       C  0.54892135  0.99247372  0.25872234     0.98600
O1031       O  0.56967880  0.51998621  0.24514379    -0.82000
O1032       O  0.60972918  0.96709816  0.19648469    -0.84600
C1033       C  0.63009937  0.93375782  0.19068216     1.03100
O1034       O  0.65124391  0.91883771  0.21401349    -0.77400
O1035       O  0.61909511  0.88602647  0.27239081    -0.77600
C1036       C  0.60868553  0.87729980  0.30254645     1.03000
Cr1037     Cr  0.60458987  0.97857402  0.30712166     1.93700
Cr1038     Cr  0.62142569  0.51614617  0.23468316     1.93200
Cr1039     Cr  0.65893584  0.92993233  0.26425688     1.39100
O1040       O  0.62855466  0.97468561  0.26733895    -1.22600
O1041       O  0.80142502  0.76438642  0.17061423    -0.84900
O1042       O  0.85668836  0.80787492  0.20203749    -0.81900
C1043       C  0.83645171  0.83338596  0.21801904     0.98600
O1044       O  0.82128032  0.81730149  0.24530075    -0.82000
O1045       O  0.78089892  0.75563900  0.28808871    -0.84600
C1046       C  0.75206829  0.74296096  0.27435398     1.03100
O1047       O  0.75114313  0.72528476  0.24523480    -0.77400
O1048       O  0.77316149  0.70083611  0.18329911    -0.77600
C1049       C  0.77298997  0.74159479  0.16994592     1.03000
O1050       O  0.84127819  0.67626657  0.17567850    -0.84900
O1051       O  0.89149794  0.72236817  0.21612067    -0.82000
C1052       C  0.90334901  0.74266857  0.24230918     0.98600
O1053       O  0.88284876  0.76252883  0.26252648    -0.82000
O1054       O  0.84016120  0.69690447  0.30083077    -0.84600
C1055       C  0.81779946  0.66374725  0.30340905     1.03100
O1056       O  0.79370029  0.66074448  0.28107379    -0.77400
O1057       O  0.82790771  0.64242925  0.22450397    -0.77600
C1058       C  0.83954708  0.63965211  0.19478927     1.03000
Cr1059     Cr  0.84592408  0.74114337  0.19391322     1.93700
Cr1060     Cr  0.83103180  0.75676097  0.27144623     1.93200
Cr1061     Cr  0.78931223  0.68514001  0.23267366     1.39100
O1062       O  0.82195844  0.72835650  0.23310050    -1.22600
C1063       C  0.17760150  0.59477470  0.11942790     0.30500
C1064       C  0.13143567  0.53735209  0.15245702     0.30500
C1065       C  0.15797083  0.61508158  0.15011997    -0.05700
C1066       C  0.14754130  0.57838591  0.09680283    -0.06500
C1067       C  0.19292448  0.54767215  0.13226276    -0.06400
C1068       C  0.13412531  0.58665968  0.16716237    -0.05700
C1069       C  0.12359543  0.54860268  0.11323889    -0.06500
C1070       C  0.17112533  0.52110252  0.15284103    -0.06400
C1071       C  0.11902074  0.61382783  0.19234202    -0.31800
N1072       N  0.13177040  0.65807610  0.18958892     0.14700
C1073       C  0.15631117  0.65817705  0.16426615    -0.31800
H1074       H  0.17332987  0.68719792  0.15774943     0.16700
C1075       C  0.10038449  0.53465343  0.08754106    -0.30800
N1076       N  0.11044870  0.55466675  0.05647616     0.13400
C1077       C  0.13957197  0.58072134  0.06223964    -0.30800
C1078       C  0.19159967  0.99327056  0.17171536    -0.31000
N1079       N  0.22518523  0.99731073  0.15951537     0.14000
H1080       H  0.18565273  0.97492748  0.19549081     0.16600
C1081       C  0.22622891  0.52760458  0.13327024    -0.31100
H1082       H  0.24915311  0.53967274  0.11917569     0.16600
H1083       H  0.15493414  0.59841867  0.04227213     0.16600
H1084       H  0.10136488  0.60175518  0.21253017     0.16700
H1085       H  0.07823389  0.00773086  0.09102031     0.16600
O1086       O  0.25312617  0.70519922  0.17021136    -0.84900
O1087       O  0.30901744  0.65431207  0.19052123    -0.81900
C1088       C  0.33745633  0.64260599  0.20452273     0.98600
O1089       O  0.36009218  0.67466317  0.21060604    -0.82000
O1090       O  0.36132976  0.74512317  0.15168218    -0.84600
C1091       C  0.35012792  0.77901404  0.13278813     1.03100
O1092       O  0.33028620  0.80839061  0.14630663    -0.77400
O1093       O  0.27462756  0.76111228  0.13615329    -0.77600
C1094       C  0.26010327  0.72323885  0.13985317     1.03000
O1095       O  0.25931977  0.74392063  0.24223153    -0.84900
O1096       O  0.31363450  0.69251072  0.25900259    -0.82000
C1097       C  0.33587131  0.72020168  0.27217498     0.98600
O1098       O  0.35060257  0.75061970  0.25313898    -0.82000
O1099       O  0.35666816  0.82007767  0.20222917    -0.84600
C1100       C  0.33034262  0.84384208  0.21190912     1.03100
O1101       O  0.30139273  0.82463490  0.21551275    -0.77400
O1102       O  0.23918648  0.78407966  0.19845187    -0.77600
C1103       C  0.23511706  0.76720546  0.22898181     1.03000
Cr1104     Cr  0.28436645  0.70127139  0.21423433     1.93700
Cr1105     Cr  0.35526669  0.74723376  0.20316307     1.93200
Cr1106     Cr  0.28777151  0.79265804  0.17589873     1.39100
O1107       O  0.30947673  0.74540405  0.19654490    -1.22600
C1108       C  0.25957922  0.84156600  0.41977939     0.30500
C1109       C  0.30708040  0.78476149  0.39092515     0.30500
C1110       C  0.28162765  0.86275098  0.38896229    -0.05700
C1111       C  0.28754880  0.82069289  0.44449328    -0.06500
C1112       C  0.24360487  0.79736771  0.40485525    -0.06400
C1113       C  0.30632207  0.83467164  0.37477753    -0.05700
C1114       C  0.31229822  0.79259475  0.43040119    -0.06500
C1115       C  0.26711135  0.77064470  0.38734394    -0.06400
C1116       C  0.32225098  0.86090823  0.34782836    -0.31800
N1117       N  0.30908431  0.90444845  0.34629083     0.14700
C1118       C  0.28325039  0.90487858  0.37043807    -0.31800
H1119       H  0.26555003  0.93341902  0.37335269     0.16700
C1120       C  0.33624088  0.78160085  0.45737035    -0.30800
N1121       N  0.32567160  0.80133164  0.48719083     0.13400
C1122       C  0.29535698  0.82414800  0.47916445    -0.30800
C1123       C  0.24606083  0.74200433  0.36705273    -0.31000
N1124       N  0.21166102  0.74623182  0.37589939     0.14000
H1125       H  0.25472367  0.72237601  0.34568383     0.16600
C1126       C  0.21104135  0.77641060  0.40132277    -0.31100
H1127       H  0.18862958  0.77918041  0.41761726     0.16600
H1128       H  0.27998553  0.84271187  0.49728661     0.16600
H1129       H  0.34007642  0.84838059  0.32887461     0.16700
H1130       H  0.36009294  0.76203664  0.45486603     0.16600
O1131       O  0.17634741  0.94593137  0.38373094    -0.84900
O1132       O  0.16690955  0.89750385  0.32375774    -0.81900
C1133       C  0.13367555  0.89050393  0.32440953     0.98600
O1134       O  0.11185562  0.92267277  0.33564789    -0.82000
O1135       O  0.11143174  0.49282476  0.39696074    -0.84600
C1136       C  0.12370747  0.52517964  0.41488286     1.03100
O1137       O  0.14701716  0.55313748  0.40277117    -0.77400
O1138       O  0.20787546  0.00769945  0.39086184    -0.77600
C1139       C  0.19504297  0.97096072  0.40318954     1.03000
O1140       O  0.21230036  0.97565129  0.31775975    -0.84900
O1141       O  0.14897333  0.96949933  0.28323228    -0.82000
C1142       C  0.11952295  0.98669867  0.27349358     0.98600
O1143       O  0.10086691  0.50488684  0.29541117    -0.82000
O1144       O  0.09881773  0.56900875  0.34677878    -0.84600
C1145       C  0.12059033  0.60129530  0.33743867     1.03100
O1146       O  0.15302474  0.59550530  0.33683223    -0.77400
O1147       O  0.21130760  0.55101939  0.32225907    -0.77600
C1148       C  0.22330567  0.51522231  0.30941284     1.03000
Cr1149     Cr  0.16391710  0.95890533  0.33331462     1.93700
Cr1150     Cr  0.10798335  0.49866536  0.34537816     1.93200
Cr1151     Cr  0.17881400  0.55051436  0.36179570     1.39100
O1152       O  0.15267618  0.00994463  0.34174009    -1.22600
O1153       O  0.15428681  0.76143743  0.35435495    -0.84900
O1154       O  0.10205914  0.81748639  0.32539298    -0.81900
C1155       C  0.12194043  0.84561221  0.30903818     0.98600
O1156       O  0.13523334  0.83380894  0.28049025    -0.82000
O1157       O  0.17320698  0.77930439  0.23404783    -0.84600
C1158       C  0.20187413  0.76582468  0.24817865     1.03100
O1159       O  0.20181967  0.74354254  0.27713921    -0.77400
O1160       O  0.17985998  0.69967709  0.33735310    -0.77600
C1161       C  0.18061201  0.73484822  0.35544530     1.03000
O1162       O  0.11039992  0.68029085  0.34372356    -0.84900
O1163       O  0.06310523  0.73558669  0.30637305    -0.82000
C1164       C  0.05163166  0.75764802  0.27966821     0.98600
O1165       O  0.07179460  0.78339231  0.26141632    -0.82000
O1166       O  0.11171253  0.72256684  0.22170650    -0.84600
C1167       C  0.13364215  0.68998277  0.21762988     1.03100
O1168       O  0.15960850  0.68603379  0.23778537    -0.77400
O1169       O  0.12418395  0.65493338  0.29388459    -0.77600
C1170       C  0.11262587  0.64709186  0.32375220     1.03000
Cr1171     Cr  0.10900584  0.74821365  0.32930211     1.93700
Cr1172     Cr  0.12333788  0.77796839  0.25221456     1.93200
Cr1173     Cr  0.16366545  0.69904788  0.28733965     1.39100
O1174       O  0.13223817  0.74266371  0.28951908    -1.22600
O1175       O  0.28537830  0.00837911  0.17529760    -0.84900
O1176       O  0.34484634  0.56174572  0.19767920    -0.81900
C1177       C  0.33905922  0.59317004  0.21861028     0.98600
O1178       O  0.32876907  0.58259675  0.24947009    -0.82000
O1179       O  0.28224102  0.52977526  0.29543425    -0.84600
C1180       C  0.25160843  0.51912586  0.28444106     1.03100
O1181       O  0.24668350  0.00294916  0.25573651    -0.77400
O1182       O  0.25842216  0.94995213  0.19923182    -0.77600
C1183       C  0.25768272  0.98418330  0.17821049     1.03000
O1184       O  0.33110342  0.92422398  0.19283874    -0.84900
O1185       O  0.38197689  0.98369974  0.21388360    -0.82000
C1186       C  0.39773697  0.99896691  0.23997951     0.98600
O1187       O  0.38166588  0.51621749  0.26548626    -0.82000
O1188       O  0.33616276  0.96149996  0.30758537    -0.84600
C1189       C  0.30982164  0.93619719  0.31618162     1.03100
O1190       O  0.28232918  0.93942649  0.29828970    -0.77400
O1191       O  0.31050580  0.90129221  0.24358486    -0.77600
C1192       C  0.32761011  0.89315334  0.21702534     1.03000
Cr1193     Cr  0.33289410  0.99405440  0.19789314     1.93700
Cr1194     Cr  0.33113822  0.52079485  0.27682299     1.93200
Cr1195     Cr  0.27806778  0.95200198  0.24776554     1.39100
O1196       O  0.31418606  0.99025380  0.24036836    -1.22600
C1197       C  0.20154076  0.95835472  0.44061606    -0.04900
C1198       C  0.23688137  0.96036510  0.45059316    -0.02000
C1199       C  0.25643384  0.91986980  0.44691133     0.03000
C1200       C  0.23785095  0.87889884  0.43637821    -0.04900
C1201       C  0.20000415  0.87910041  0.43986318    -0.02000
C1202       C  0.18519657  0.91813385  0.45269290     0.03000
C1203       C  0.25318206  0.00421601  0.45727979     0.37600
C1204       C  0.17484799  0.85797690  0.41736536     0.37600
C1205       C  0.17399861  0.91489855  0.48825244     0.36100
C1206       C  0.29453952  0.92408639  0.44640690     0.36100
N1207       N  0.16534383  0.91197121  0.51689167    -0.38800
N1208       N  0.32480653  0.92788162  0.44412434    -0.38800
N1209       N  0.15229209  0.84468381  0.39980572    -0.38200
N1210       N  0.26618907  0.03922544  0.46299740    -0.38200
C1211       C  0.34359737  0.71995738  0.31037258    -0.04900
C1212       C  0.36764724  0.75273235  0.32407521    -0.02000
C1213       C  0.36253275  0.76773463  0.35783418     0.03000
C1214       C  0.33330454  0.75106854  0.37627242    -0.04900
C1215       C  0.32180121  0.70653716  0.36893468    -0.02000
C1216       C  0.32411542  0.69237556  0.33460485     0.03000
C1217       C  0.39606505  0.77275202  0.30360382     0.37600
C1218       C  0.30543547  0.67798711  0.39595884     0.37600
C1219       C  0.30416176  0.65260966  0.32439194     0.36100
C1220       C  0.38585591  0.80103531  0.37325233     0.36100
N1221       N  0.28744776  0.62120563  0.31666614    -0.38800
N1222       N  0.40453242  0.82748308  0.38569252    -0.38800
N1223       N  0.29275409  0.65536282  0.41788542    -0.38200
N1224       N  0.41871995  0.78896262  0.28734167    -0.38200
C1225       C  0.34292654  0.79281369  0.02157255    -0.04900
C1226       C  0.35097642  0.74939391  0.03777478    -0.02000
C1227       C  0.36078824  0.74601326  0.07352356     0.03000
C1228       C  0.35720826  0.78439745  0.09445376    -0.04900
C1229       C  0.35434894  0.82819817  0.07745515    -0.02000
C1230       C  0.34858764  0.83233538  0.04121186     0.03000
C1231       C  0.34730428  0.70792429  0.01864630     0.37600
C1232       C  0.35820511  0.86938963  0.09718240     0.37600
C1233       C  0.34949638  0.87772459  0.02449622     0.36100
C1234       C  0.37775810  0.70485978  0.08769536     0.36100
N1235       N  0.35151078  0.91507211  0.01316563    -0.38800
N1236       N  0.39311371  0.67296294  0.09844919    -0.38800
N1237       N  0.36129237  0.90220117  0.11289046    -0.38200
N1238       N  0.36394333  0.68585868  0.50182629    -0.38200
C1239       C  0.25264548  0.69956577  0.10806270    -0.04900
C1240       C  0.22008043  0.70865432  0.09170833    -0.02000
C1241       C  0.19565665  0.67192358  0.08956793     0.03000
C1242       C  0.20487756  0.62864238  0.10616037    -0.04900
C1243       C  0.23884716  0.62527914  0.12188339    -0.02000
C1244       C  0.26428607  0.65468436  0.10935805     0.03000
C1245       C  0.21031367  0.75589537  0.08325480     0.37600
C1246       C  0.24242469  0.61227920  0.15887871     0.37600
C1247       C  0.30077410  0.64327449  0.11587175     0.36100
C1248       C  0.15978032  0.68249005  0.07935735     0.36100
N1249       N  0.32938104  0.63134003  0.12126799    -0.38800
N1250       N  0.13108508  0.69266818  0.07237369    -0.38800
N1251       N  0.24438390  0.60206602  0.18819848    -0.38200
N1252       N  0.20292522  0.79381831  0.07659969    -0.38200
C1253       C  0.10527658  0.50283320  0.16864983    -0.04900
C1254       C  0.07834484  0.51954974  0.18885107    -0.02000
C1255       C  0.07918865  0.50831025  0.22463482     0.03000
C1256       C  0.10747414  0.48085838  0.23819691    -0.04900
C1257       C  0.12055835  0.95318666  0.21410293    -0.02000
C1258       C  0.11435964  0.96162726  0.17844179     0.03000
C1259       C  0.05240938  0.55052556  0.17324875     0.37600
C1260       C  0.14463136  0.91693402  0.22526683     0.37600
C1261       C  0.12677636  0.93099381  0.15274591     0.36100
C1262       C  0.05145176  0.52414871  0.24643378     0.36100
N1263       N  0.13664710  0.90654250  0.13217736    -0.38800
N1264       N  0.02888001  0.53562012  0.26385725    -0.38800
N1265       N  0.16580049  0.88959013  0.23239977    -0.38200
N1266       N  0.03151730  0.57517486  0.16084662    -0.38200
C1267       C  0.09701006  0.54752707  0.02178686    -0.04900
C1268       C  0.10044467  0.58494786  0.49692765    -0.02000
C1269       C  0.10691526  0.57763046  0.46188760     0.03000
C1270       C  0.11064868  0.53225840  0.45056483    -0.04900
C1271       C  0.10021889  0.99381995  0.47310361    -0.02000
C1272       C  0.09753108  0.00156518  0.50900443     0.03000
C1273       C  0.09303812  0.63083688  0.50787667     0.37600
C1274       C  0.09515419  0.94787053  0.46079093     0.37600
C1275       C  0.09850360  0.95846787  0.03276673     0.36100
C1276       C  0.11072521  0.61731598  0.43803707     0.36100
N1277       N  0.09797890  0.92643093  0.05163661    -0.38800
N1278       N  0.11433688  0.64936901  0.41956108    -0.38800
N1279       N  0.09039826  0.91129138  0.45096319    -0.38200
N1280       N  0.08524613  0.66834774  0.01739765    -0.38200
C1281       C  0.94193139  0.74614996  0.24914921    -0.04900
C1282       C  0.95760956  0.78993179  0.25334686    -0.02000
C1283       C  0.99345369  0.79370821  0.26308638     0.03000
C1284       C  0.01386324  0.75374373  0.26935641    -0.04900
C1285       C  0.99844821  0.71004859  0.26441793    -0.02000
C1286       C  0.96277013  0.70630518  0.25379356     0.03000
C1287       C  0.93699261  0.83141914  0.24716017     0.37600
C1288       C  0.01953953  0.66894296  0.26982806     0.37600
C1289       C  0.94732155  0.66140815  0.24840531     0.36100
C1290       C  0.00901560  0.83881529  0.26773885     0.36100
N1291       N  0.93497654  0.62565246  0.24385761    -0.38800
N1292       N  0.02147563  0.87473646  0.27142854    -0.38800
N1293       N  0.03668040  0.63647346  0.27440930    -0.38200
N1294       N  0.92070300  0.86461845  0.24230652    -0.38200
C1295       C  0.51081806  0.99534383  0.25191696    -0.04900
C1296       C  0.49369064  0.96250132  0.23178856    -0.02000
C1297       C  0.45675753  0.96357149  0.22734893     0.03000
C1298       C  0.43694960  0.99865245  0.24226544    -0.04900
C1299       C  0.45587450  0.53558476  0.25529564    -0.02000
C1300       C  0.49235902  0.53406274  0.26193048     0.03000
C1301       C  0.51425123  0.92782060  0.21547129     0.37600
C1302       C  0.43751340  0.57900682  0.25732845     0.37600
C1303       C  0.50999112  0.57308119  0.27694866     0.36100
C1304       C  0.43947607  0.92796752  0.20797457     0.36100
N1305       N  0.52369308  0.60401926  0.28950652    -0.38800
N1306       N  0.42578715  0.89963343  0.19237562    -0.38800
N1307       N  0.42285395  0.61363303  0.25851226    -0.38200
N1308       N  0.53076747  0.90049864  0.20222820    -0.38200
C1309       C  0.70650460  0.87193658  0.07075630    -0.04900
C1310       C  0.74140629  0.85922491  0.06488416    -0.02000
C1311       C  0.76790591  0.88994060  0.07476241     0.03000
C1312       C  0.75756619  0.93441890  0.08329930    -0.04900
C1313       C  0.72564552  0.95085158  0.06833054    -0.02000
C1314       C  0.69851632  0.91857043  0.06378457     0.03000
C1315       C  0.74972094  0.81333794  0.05478377     0.37600
C1316       C  0.72032847  0.99950579  0.06084723     0.37600
C1317       C  0.66335050  0.93236223  0.05308222     0.36100
C1318       C  0.80316079  0.87307433  0.08110314     0.36100
N1319       N  0.63529716  0.94343146  0.04421268    -0.38800
N1320       N  0.83030766  0.85616047  0.08618152    -0.38800
N1321       N  0.71650841  0.03837499  0.05431995    -0.38200
N1322       N  0.75756358  0.77685519  0.04720567    -0.38200
C1323       C  0.59595205  0.71133303  0.22115665    -0.04900
C1324       C  0.58497806  0.75519787  0.21026614    -0.02000
C1325       C  0.61064815  0.77803950  0.19175092     0.03000
C1326       C  0.62324335  0.75649721  0.16261261    -0.04900
C1327       C  0.62375711  0.70754658  0.16466234    -0.02000
C1328       C  0.61149170  0.68480465  0.19561490     0.03000
C1329       C  0.56033508  0.78161242  0.22954096     0.37600
C1330       C  0.64112522  0.68169149  0.13877183     0.37600
C1331       C  0.61186256  0.63537551  0.19973548     0.36100
C1332       C  0.63650079  0.80217806  0.21266882     0.36100
N1333       N  0.61113191  0.59562210  0.20107683    -0.38800
N1334       N  0.65769965  0.81985062  0.22945069    -0.38800
N1335       N  0.65545057  0.66069443  0.11851962    -0.38200
N1336       N  0.54062830  0.80261937  0.24496413    -0.38200
C1337       C  0.61830903  0.75408720  0.43573117    -0.04900
C1338       C  0.58639080  0.75063433  0.45434711    -0.02000
C1339       C  0.58752335  0.75187203  0.49122529     0.03000
C1340       C  0.62572811  0.74269888  0.00878670    -0.04900
C1341       C  0.65052833  0.74127814  0.48959850    -0.02000
C1342       C  0.65026084  0.75453832  0.45454972     0.03000
C1343       C  0.55298845  0.75178409  0.43578190     0.37600
C1344       C  0.68290900  0.72641347  0.50666254     0.37600
C1345       C  0.68000492  0.78085636  0.44137568     0.36100
C1346       C  0.56108248  0.73921109  0.01596562     0.36100
N1347       N  0.70234238  0.80514341  0.43159153    -0.38800
N1348       N  0.53669081  0.74005057  0.03355931    -0.38800
N1349       N  0.71582762  0.71411854  0.01090571    -0.38200
N1350       N  0.52625692  0.75287909  0.42095426    -0.38200
C1351       C  0.70359383  0.67535058  0.41614541    -0.04900
C1352       C  0.73917600  0.68425224  0.42493091    -0.02000
C1353       C  0.76123287  0.64636197  0.43057184     0.03000
C1354       C  0.74652687  0.60235323  0.42578340    -0.04900
C1355       C  0.71099161  0.59579251  0.43409291    -0.02000
C1356       C  0.68847175  0.63322862  0.42817780     0.03000
C1357       C  0.75494723  0.72959739  0.42024752     0.37600
C1358       C  0.69846341  0.55177045  0.44811245     0.37600
C1359       C  0.65063198  0.62663349  0.42822733     0.36100
C1360       C  0.79900936  0.65337527  0.43309260     0.36100
N1361       N  0.62041945  0.62100200  0.42792078    -0.38800
N1362       N  0.82904231  0.66019298  0.43314431    -0.38800
N1363       N  0.68876165  0.51653143  0.45951560    -0.38200
N1364       N  0.76886587  0.76493291  0.41632325    -0.38200
C1365       C  0.83296531  0.47323854  0.35858601    -0.04900
C1366       C  0.81855518  0.43325355  0.34529902    -0.02000
C1367       C  0.81775368  0.43031756  0.30914983     0.03000
C1368       C  0.83791217  0.46284024  0.28904653    -0.04900
C1369       C  0.86368647  0.98915118  0.30583160    -0.02000
C1370       C  0.86045414  0.99555477  0.34148907     0.03000
C1371       C  0.80100381  0.39974399  0.36806907     0.37600
C1372       C  0.89292940  0.01012853  0.28716272     0.37600
C1373       C  0.88385671  0.02608602  0.35973461     0.36100
C1374       C  0.79444427  0.39694728  0.29370256     0.36100
N1375       N  0.90219033  0.05093417  0.37429444    -0.38800
N1376       N  0.77471360  0.37111247  0.28204972    -0.38800
N1377       N  0.91653436  0.02641585  0.27235085    -0.38200
N1378       N  0.78694131  0.37272600  0.38601642    -0.38200
C1379       C  0.85039759  0.52141749  0.00122703    -0.04900
C1380       C  0.85935290  0.97245661  0.01997630    -0.02000
C1381       C  0.86317928  0.97417228  0.05642044     0.03000
C1382       C  0.85507098  0.51962224  0.07370220    -0.04900
C1383       C  0.85621243  0.56210543  0.05489635    -0.02000
C1384       C  0.85617291  0.56270206  0.01846611     0.03000
C1385       C  0.86021821  0.92891224  0.00341836     0.37600
C1386       C  0.85866161  0.60468474  0.07304362     0.37600
C1387       C  0.86479743  0.60472999  0.99910077     0.36100
C1388       C  0.87919108  0.93645306  0.07639758     0.36100
N1389       N  0.87420164  0.63864980  0.98533688    -0.38800
N1390       N  0.89358765  0.90768955  0.09259784    -0.38800
N1391       N  0.86087319  0.63850144  0.08766941    -0.38200
N1392       N  0.84174301  0.90166199  0.48317252    -0.38200
C1393       C  0.75978351  0.56465370  0.90899578     0.30500
C1394       C  0.80369658  0.50770308  0.87657839     0.30500
C1395       C  0.78273044  0.58821960  0.87986367    -0.05700
C1396       C  0.78671007  0.53906268  0.93197160    -0.06500
C1397       C  0.74079716  0.52596585  0.88915527    -0.06400
C1398       C  0.80524025  0.55928624  0.86347626    -0.05700
C1399       C  0.80951120  0.51062755  0.91579961    -0.06500
C1400       C  0.76303310  0.49649883  0.87249116    -0.06400
C1401       C  0.82094126  0.58584956  0.83676607    -0.31800
N1402       N  0.81011134  0.63028273  0.83721362     0.14700
C1403       C  0.78543878  0.63134881  0.86250732    -0.31800
H1404       H  0.76859073  0.66050289  0.86620664     0.16700
C1405       C  0.83689669  0.50098548  0.93925384    -0.30800
N1406       N  0.83037137  0.52243655  0.96913045     0.13400
C1407       C  0.79964472  0.54535769  0.96482230    -0.30800
C1408       C  0.74269587  0.96784959  0.85058068    -0.31000
N1409       N  0.70860753  0.98064899  0.85514183     0.14000
H1410       H  0.75001881  0.94392438  0.83152233     0.16600
C1411       C  0.70668595  0.51779147  0.87657496    -0.31100
H1412       H  0.68369179  0.53825206  0.88119297     0.16600
H1413       H  0.78836251  0.56697634  0.98385233     0.16600
H1414       H  0.83674684  0.57327940  0.81629673     0.16700
H1415       H  0.86278002  0.97279736  0.93302220     0.16600
O1416       O  0.66400680  0.66406883  0.86382453    -0.84900
O1417       O  0.65482270  0.61805812  0.80717915    -0.81900
C1418       C  0.62176999  0.61135376  0.80934011     0.98600
O1419       O  0.59974194  0.64304106  0.82101769    -0.82000
O1420       O  0.60151427  0.71406624  0.87964687    -0.84600
C1421       C  0.61498326  0.74637512  0.89669354     1.03100
O1422       O  0.63103916  0.77894786  0.88059870    -0.77400
O1423       O  0.69149367  0.72811303  0.87500654    -0.77600
C1424       C  0.68215498  0.68803754  0.88396871     1.03000
O1425       O  0.69988964  0.69230529  0.79927089    -0.84900
O1426       O  0.63542911  0.68649110  0.76455484    -0.82000
C1427       C  0.60506220  0.70151112  0.75577296     0.98600
O1428       O  0.58650565  0.72091039  0.77775087    -0.82000
O1429       O  0.58933213  0.79200403  0.82633212    -0.84600
C1430       C  0.61242899  0.82265898  0.81537686     1.03100
O1431       O  0.64417542  0.81316106  0.81302206    -0.77400
O1432       O  0.70314536  0.76701954  0.80816198    -0.77600
C1433       C  0.71443403  0.73155403  0.79455827     1.03000
Cr1434     Cr  0.65114773  0.67814605  0.81461776     1.93700
Cr1435     Cr  0.59600752  0.71913655  0.82752294     1.93200
Cr1436     Cr  0.66609833  0.76998370  0.84305749     1.39100
O1437       O  0.64036611  0.72966372  0.82261738    -1.22600
C1438       C  0.68275356  0.83917767  0.59840171     0.30500
C1439       C  0.64116613  0.78217833  0.63778876     0.30500
C1440       C  0.65880039  0.86378150  0.62397864    -0.05700
C1441       C  0.65665326  0.80919601  0.57909884    -0.06500
C1442       C  0.70290339  0.80369250  0.62278872    -0.06400
C1443       C  0.63560811  0.83516096  0.64175924    -0.05700
C1444       C  0.63560598  0.77888106  0.59838770    -0.06500
C1445       C  0.68159978  0.77465931  0.64277130    -0.06400
C1446       C  0.61499513  0.86344871  0.66139393    -0.31800
N1447       N  0.62939191  0.90592254  0.66211784     0.14700
C1448       C  0.65650868  0.90645078  0.63912868    -0.31800
H1449       H  0.67551984  0.93420753  0.63620264     0.16700
C1450       C  0.61653495  0.75365897  0.57445710    -0.30800
N1451       N  0.62582027  0.76915261  0.54193446     0.13400
C1452       C  0.64934202  0.80393745  0.54500253    -0.30800
C1453       C  0.70385220  0.74395817  0.66149403    -0.31000
N1454       N  0.73817561  0.75378610  0.65380582     0.14000
H1455       H  0.69556035  0.71699103  0.67989259     0.16600
C1456       C  0.73762825  0.79099894  0.63105792    -0.31100
H1457       H  0.76112547  0.80774807  0.62174474     0.16600
H1458       H  0.66236277  0.82189352  0.52352827     0.16600
H1459       H  0.59325870  0.85320712  0.67779437     0.16700
H1460       H  0.59890571  0.72502340  0.58012334     0.16600
O1461       O  0.78241599  0.92909655  0.64050834    -0.84900
O1462       O  0.78695063  0.88081377  0.70174854    -0.81900
C1463       C  0.82009739  0.87435039  0.70210070     0.98600
O1464       O  0.84255398  0.90765679  0.69138687    -0.82000
O1465       O  0.84920412  0.47957213  0.63248335    -0.84600
C1466       C  0.83740879  0.50952702  0.61047121     1.03100
O1467       O  0.81294857  0.53689005  0.61820922    -0.76600
O1468       O  0.75092903  0.99012362  0.62832609    -0.77600
C1469       C  0.76303993  0.95240820  0.61961186     1.03000
O1470       O  0.74043806  0.95501353  0.69997053    -0.84900
O1471       O  0.79982172  0.95177927  0.73972392    -0.82000
C1472       C  0.82784561  0.46804132  0.75467987     0.98600
O1473       O  0.84970115  0.48771710  0.73454521    -0.82000
O1474       O  0.85464386  0.55595588  0.68049355    -0.84600
C1475       C  0.83149180  0.58818078  0.68290826     1.03100
O1476       O  0.79918997  0.58152426  0.67847534    -0.77400
O1477       O  0.74026678  0.53097292  0.69250065    -0.77600
C1478       C  0.72755521  0.49428781  0.70644530     1.03000
Cr1479     Cr  0.79045758  0.94223053  0.68998249     1.93700
Cr1480     Cr  0.84708697  0.48448833  0.68383017     1.93200
Cr1481     Cr  0.77732666  0.53226656  0.65629160     1.39100
O1482       O  0.80196802  0.99419447  0.68023027    -1.22600
O1483       O  0.64904402  0.98817722  0.83671671    -0.84900
O1484       O  0.59175058  0.53844768  0.80713225    -0.81900
C1485       C  0.61127889  0.56830361  0.79264832     0.98600
O1486       O  0.62709927  0.55908868  0.76502464    -0.82000
O1487       O  0.66811191  0.51253922  0.71689832    -0.84600
C1488       C  0.69671332  0.49534920  0.72857376     1.03100
O1489       O  0.69811486  0.96913857  0.75651467    -0.77400
O1490       O  0.67744945  0.92967096  0.81773925    -0.77600
C1491       C  0.67722105  0.96539777  0.83587706     1.03000
O1492       O  0.60731171  0.90308792  0.82540119    -0.84900
O1493       O  0.55887843  0.95832923  0.78869698    -0.82000
C1494       C  0.54681771  0.98436677  0.76430496     0.98600
O1495       O  0.56606749  0.50698795  0.74317362    -0.82000
O1496       O  0.60812087  0.96052985  0.70098642    -0.84600
C1497       C  0.63007806  0.92943418  0.69440154     1.03100
O1498       O  0.65250919  0.91633473  0.71707747    -0.77400
O1499       O  0.62020019  0.88088440  0.77465693    -0.77600
C1500       C  0.60800078  0.87118752  0.80409406     1.03000
Cr1501     Cr  0.60424017  0.97164784  0.81182181     1.93700
Cr1502     Cr  0.61804246  0.50703224  0.73381591     1.93200
Cr1503     Cr  0.65928268  0.92632873  0.76760920     1.39100
O1504       O  0.62756526  0.96924271  0.77146804    -1.22600
O1505       O  0.79814216  0.75669862  0.67116071    -0.84900
O1506       O  0.85180677  0.80260828  0.70298481    -0.81900
C1507       C  0.83061636  0.82818825  0.71772122     0.98600
O1508       O  0.81447928  0.81224418  0.74439065    -0.82000
O1509       O  0.77387078  0.75149152  0.78723347    -0.84600
C1510       C  0.74606061  0.73486156  0.77409852     1.03100
O1511       O  0.74614469  0.71552210  0.74567490    -0.77400
O1512       O  0.77000529  0.69297813  0.68420395    -0.77600
C1513       C  0.76993340  0.73346964  0.67009869     1.03000
O1514       O  0.83896729  0.67000136  0.67797865    -0.84900
O1515       O  0.88721102  0.71774928  0.72001312    -0.82000
C1516       C  0.89795549  0.73841766  0.74647390     0.98600
O1517       O  0.87672258  0.75930901  0.76542464    -0.82000
O1518       O  0.83272471  0.69621235  0.80464087    -0.84600
C1519       C  0.81135613  0.66200866  0.80712713     1.03100
O1520       O  0.78993649  0.65470268  0.78289598    -0.77400
O1521       O  0.82567438  0.63616672  0.72667446    -0.77600
C1522       C  0.83739672  0.63331823  0.69696657     1.03000
Cr1523     Cr  0.84219483  0.73514403  0.69599725     1.93700
Cr1524     Cr  0.82434497  0.75335531  0.77247483     1.93200
Cr1525     Cr  0.78584267  0.67772680  0.73402655     1.39100
O1526       O  0.81727215  0.72258072  0.73471142    -1.22600
C1527       C  0.17710467  0.59893590  0.62160327     0.30500
C1528       C  0.12828225  0.54450883  0.65309448     0.30500
C1529       C  0.15728278  0.62067840  0.65172099    -0.05700
C1530       C  0.14761960  0.58325989  0.59810958    -0.06500
C1531       C  0.19091882  0.55158462  0.63565019    -0.06400
C1532       C  0.13204210  0.59359252  0.66783515    -0.05700
C1533       C  0.12238724  0.55526595  0.61380546    -0.06500
C1534       C  0.16757468  0.52584648  0.65539021    -0.06400
C1535       C  0.11734756  0.62091265  0.69306777    -0.31800
N1536       N  0.13160096  0.66417305  0.69138473     0.14700
C1537       C  0.15694121  0.66343948  0.66675095    -0.31800
H1538       H  0.17508778  0.69154346  0.66111417     0.16700
C1539       C  0.10083033  0.53965133  0.58739979    -0.30800
N1540       N  0.11315973  0.55731344  0.55654779     0.13400
C1541       C  0.14218641  0.58305965  0.56311317    -0.30800
C1542       C  0.19220153  0.99775499  0.67279871    -0.31000
N1543       N  0.22585099  0.00288026  0.66135052     0.14000
H1544       H  0.18602081  0.97859500  0.69639586     0.16600
C1545       C  0.22348652  0.53001355  0.63766289    -0.31100
H1546       H  0.24695067  0.54078765  0.62388112     0.16600
H1547       H  0.15918778  0.59868398  0.54354966     0.16600
H1548       H  0.09907843  0.60966718  0.71282965     0.16700
H1549       H  0.07960524  0.01102556  0.58991576     0.16600
O1550       O  0.24914460  0.70833387  0.66920870    -0.84900
O1551       O  0.30674116  0.65882556  0.68856232    -0.81900
C1552       C  0.33415998  0.64681983  0.70439883     0.98600
O1553       O  0.35636898  0.67899661  0.71109121    -0.82000
O1554       O  0.35702547  0.75074596  0.65205610    -0.84600
C1555       C  0.34581758  0.78503039  0.63345893     1.03100
O1556       O  0.32507327  0.81345007  0.64694127    -0.77400
O1557       O  0.26931004  0.76652279  0.63672065    -0.77600
C1558       C  0.25609182  0.72774599  0.63938219     1.03000
O1559       O  0.25312071  0.74295442  0.74208128    -0.84900
O1560       O  0.30903721  0.69449762  0.75778044    -0.82000
C1561       C  0.33085840  0.72200404  0.77169055     0.98600
O1562       O  0.34528385  0.75376070  0.75360150    -0.82000
O1563       O  0.35211757  0.82375999  0.70302537    -0.84600
C1564       C  0.32611228  0.84766093  0.71295656     1.03100
O1565       O  0.29690044  0.82903549  0.71653574    -0.77400
O1566       O  0.23462608  0.78853607  0.70029001    -0.77600
C1567       C  0.23035382  0.76992275  0.73031674     1.03000
Cr1568     Cr  0.28015307  0.70358632  0.71305573     1.93700
Cr1569     Cr  0.35062622  0.75144674  0.70362771     1.93200
Cr1570     Cr  0.28283572  0.79715744  0.67693580     1.39100
O1571       O  0.30471614  0.74946768  0.69691015    -1.22600
C1572       C  0.26057447  0.84388378  0.92147748     0.30500
C1573       C  0.30540965  0.78510639  0.89107888     0.30500
C1574       C  0.28247444  0.86448506  0.89045860    -0.05700
C1575       C  0.28873581  0.82178667  0.94542427    -0.06500
C1576       C  0.24293572  0.80030830  0.90678228    -0.06400
C1577       C  0.30583631  0.83545301  0.87529479    -0.05700
C1578       C  0.31178025  0.79189738  0.93052926    -0.06500
C1579       C  0.26512410  0.77303534  0.88839178    -0.06400
C1580       C  0.32173715  0.86173793  0.84820657    -0.31800
N1581       N  0.30994467  0.90609913  0.84771866     0.14700
C1582       C  0.28492296  0.90699021  0.87260968    -0.31800
H1583       H  0.26811432  0.93620727  0.87638059     0.16700
C1584       C  0.33509759  0.77721474  0.95705727    -0.30800
N1585       N  0.32625221  0.79728228  0.98720480     0.13400
C1586       C  0.29758858  0.82391125  0.98000955    -0.30800
C1587       C  0.24291898  0.74515631  0.86874715    -0.31000
N1588       N  0.20903081  0.74988154  0.87883561     0.14000
H1589       H  0.25037457  0.72573969  0.84688031     0.16600
C1590       C  0.20986565  0.77981178  0.90454519    -0.31100
H1591       H  0.18771687  0.78428824  0.92110628     0.16600
H1592       H  0.28405347  0.84375681  0.99873836     0.16600
H1593       H  0.33863167  0.84873545  0.82861851     0.16700
H1594       H  0.35717507  0.75443084  0.95430482     0.16600
O1595       O  0.17311193  0.95184878  0.88606895    -0.84900
O1596       O  0.16289625  0.90241124  0.82634707    -0.81900
C1597       C  0.12948803  0.89650040  0.82593368     0.98600
O1598       O  0.10799088  0.93000173  0.83549719    -0.82000
O1599       O  0.10279618  0.49399456  0.89575812    -0.84600
C1600       C  0.11466129  0.52588987  0.91428573     1.03100
O1601       O  0.13837003  0.55335473  0.90282933    -0.77400
O1602       O  0.20506232  0.01301311  0.89363242    -0.77600
C1603       C  0.19285445  0.97569090  0.90541847     1.03000
O1604       O  0.20990998  0.97992015  0.82023123    -0.84900
O1605       O  0.14708228  0.97374995  0.78485461    -0.82000
C1606       C  0.11834964  0.99161077  0.77373272     0.98600
O1607       O  0.09204550  0.51036593  0.79409502    -0.82000
O1608       O  0.09255274  0.57331886  0.84655260    -0.84600
C1609       C  0.11545498  0.60520007  0.83875894     1.03100
O1610       O  0.14786744  0.59832559  0.83913472    -0.77400
O1611       O  0.20641422  0.55284628  0.82581867    -0.77600
C1612       C  0.21826527  0.51804649  0.81162400     1.03000
Cr1613     Cr  0.16107354  0.96430574  0.83533157     1.93700
Cr1614     Cr  0.10000278  0.50241962  0.84397346     1.93200
Cr1615     Cr  0.17131232  0.55056152  0.86331549     1.39100
O1616       O  0.15049770  0.01595835  0.84286080    -1.22600
O1617       O  0.15144196  0.76578446  0.85790266    -0.84900
O1618       O  0.09945312  0.82241287  0.82974284    -0.81900
C1619       C  0.11730770  0.85107563  0.81157077     0.98600
O1620       O  0.12894705  0.83928013  0.78233312    -0.82000
O1621       O  0.16898006  0.78516955  0.73718677    -0.84600
C1622       C  0.19788820  0.77157366  0.75092612     1.03100
O1623       O  0.19820412  0.75037886  0.78039261    -0.77400
O1624       O  0.17640252  0.70405491  0.84049971    -0.77600
C1625       C  0.17752742  0.73892143  0.85886350     1.03000
O1626       O  0.10693156  0.68454736  0.84624607    -0.84900
O1627       O  0.05916695  0.74096070  0.81147628    -0.82000
C1628       C  0.04692262  0.75986790  0.78382482     0.98600
O1629       O  0.06682751  0.78392567  0.76393152    -0.82000
O1630       O  0.10903833  0.72611252  0.72457894    -0.84600
C1631       C  0.13233170  0.69546487  0.71986334     1.03100
O1632       O  0.15792892  0.69209804  0.74047443    -0.77400
O1633       O  0.12164905  0.65985670  0.79625308    -0.77600
C1634       C  0.10908642  0.65180138  0.82574094     1.03000
Cr1635     Cr  0.10588107  0.75298297  0.83301172     1.93700
Cr1636     Cr  0.11880198  0.78196122  0.75505699     1.93200
Cr1637     Cr  0.16068363  0.70472025  0.79029897     1.39100
O1638       O  0.12860040  0.74761998  0.79272448    -1.22600
O1639       O  0.28553993  0.01409648  0.67821972    -0.84900
O1640       O  0.34160355  0.56520613  0.70060896    -0.81900
C1641       C  0.33480131  0.59775479  0.72019506     0.98600
O1642       O  0.32359856  0.58839560  0.75100936    -0.82000
O1643       O  0.27824739  0.53484455  0.79941571    -0.84600
C1644       C  0.24798923  0.52232968  0.78826324     1.03100
O1645       O  0.24562575  0.00657888  0.75889386    -0.77400
O1646       O  0.25800774  0.95539005  0.70155011    -0.77600
C1647       C  0.25783675  0.98985553  0.68062319     1.03000
O1648       O  0.32751158  0.92781547  0.69456917    -0.84900
O1649       O  0.37987631  0.98122644  0.71826751    -0.82000
C1650       C  0.39591322  0.99804668  0.74351453     0.98600
O1651       O  0.37844277  0.52406911  0.76798758    -0.82000
O1652       O  0.33612757  0.96503464  0.80961680    -0.84600
C1653       C  0.31012511  0.93885829  0.81807793     1.03100
O1654       O  0.28216392  0.94276604  0.80088662    -0.77400
O1655       O  0.30925442  0.90503587  0.74603737    -0.77600
C1656       C  0.32468564  0.89663860  0.71867769     1.03000
Cr1657     Cr  0.33216813  0.99694468  0.70086070     1.93700
Cr1658     Cr  0.32759080  0.52749239  0.78007707     1.93200
Cr1659     Cr  0.27701159  0.95578655  0.75045135     1.39100
O1660       O  0.31305320  0.99386989  0.74304432    -1.22600
C1661       C  0.20183806  0.96073000  0.94199267    -0.04900
C1662       C  0.23763768  0.96352305  0.95076972    -0.02000
C1663       C  0.25745569  0.92279848  0.94838025     0.03000
C1664       C  0.23923916  0.88157206  0.93805690    -0.04900
C1665       C  0.20141708  0.88198169  0.94013276    -0.02000
C1666       C  0.18647871  0.91990096  0.95440560     0.03000
C1667       C  0.25371955  0.00766137  0.95700088     0.37600
C1668       C  0.17805446  0.86446626  0.91424684     0.37600
C1669       C  0.17977151  0.91540359  0.99112322     0.36100
C1670       C  0.29551153  0.92691662  0.94855678     0.36100
N1671       N  0.17487180  0.91158950  0.02063757    -0.38800
N1672       N  0.32573338  0.93117045  0.94639852    -0.38800
N1673       N  0.15734130  0.85283922  0.89407195    -0.38200
N1674       N  0.26653847  0.04285317  0.96252794    -0.38200
C1675       C  0.33871869  0.71937640  0.80968871    -0.04900
C1676       C  0.36458667  0.74917849  0.82383318    -0.02000
C1677       C  0.35975407  0.76502563  0.85735456     0.03000
C1678       C  0.33000980  0.74996283  0.87576555    -0.04900
C1679       C  0.31668435  0.70627396  0.86800410    -0.02000
C1680       C  0.31753012  0.69330436  0.83333378     0.03000
C1681       C  0.39484987  0.76473025  0.80397610     0.37600
C1682       C  0.29911331  0.67810171  0.89451173     0.37600
C1683       C  0.29357011  0.65787075  0.82203513     0.36100
C1684       C  0.38383133  0.79772911  0.87236966     0.36100
N1685       N  0.27343566  0.63062857  0.81312898    -0.38800
N1686       N  0.40302650  0.82390703  0.88439707    -0.38800
N1687       N  0.28515934  0.65552932  0.91567881    -0.38200
N1688       N  0.41917721  0.77676706  0.78820385    -0.38200
C1689       C  0.34184608  0.79970485  0.52197949    -0.04900
C1690       C  0.35502015  0.75826641  0.53794841    -0.02000
C1691       C  0.36248295  0.75524369  0.57427489     0.03000
C1692       C  0.35415095  0.79211464  0.59535555    -0.04900
C1693       C  0.34834754  0.83551723  0.57853675    -0.02000
C1694       C  0.34198729  0.83933257  0.54233963     0.03000
C1695       C  0.35978902  0.71813056  0.51774255     0.37600
C1696       C  0.35032724  0.87684549  0.59835389     0.37600
C1697       C  0.33556821  0.88475418  0.52687574     0.36100
C1698       C  0.38112964  0.71586597  0.58934483     0.36100
N1699       N  0.33066889  0.92231760  0.51705478    -0.38800
N1700       N  0.39726540  0.68524029  0.60112962    -0.38800
N1701       N  0.35234248  0.90992183  0.61389378    -0.38200
N1702       N  0.34416274  0.67451317  0.00365281    -0.38200
C1703       C  0.24998554  0.70477693  0.60698580    -0.04900
C1704       C  0.21708822  0.71227418  0.59110021    -0.02000
C1705       C  0.19353347  0.67470229  0.59013337     0.03000
C1706       C  0.20408760  0.63208146  0.60706654    -0.04900
C1707       C  0.23891048  0.62910484  0.62079975    -0.02000
C1708       C  0.26301473  0.66044230  0.60776453     0.03000
C1709       C  0.20556189  0.75898549  0.58324911     0.37600
C1710       C  0.24431324  0.61549147  0.65739177     0.37600
C1711       C  0.30013944  0.65160012  0.61278650     0.36100
C1712       C  0.15712941  0.68396829  0.58085535     0.36100
N1713       N  0.32952201  0.64235378  0.61680532    -0.38800
N1714       N  0.12797571  0.69260245  0.57460716    -0.38800
N1715       N  0.24713617  0.60480538  0.68657593    -0.38200
N1716       N  0.19633308  0.79633638  0.57718241    -0.38200
C1717       C  0.09906724  0.51295054  0.66671174    -0.04900
C1718       C  0.07251682  0.53246083  0.68587130    -0.02000
C1719       C  0.07325772  0.52337830  0.72192305     0.03000
C1720       C  0.09899902  0.49193384  0.73574385    -0.04900
C1721       C  0.12195152  0.95556325  0.71512073    -0.02000
C1722       C  0.11680130  0.96318227  0.67916602     0.03000
C1723       C  0.05032079  0.56778120  0.66961032     0.37600
C1724       C  0.14593321  0.91988863  0.72766255     0.37600
C1725       C  0.13120470  0.93283816  0.65424508     0.36100
C1726       C  0.05098307  0.54985822  0.74370628     0.36100
N1727       N  0.14289799  0.90876887  0.63434163    -0.38800
N1728       N  0.03324112  0.57140769  0.76083182    -0.38800
N1729       N  0.16664092  0.89255679  0.73625973    -0.38200
N1730       N  0.03299814  0.59642153  0.65661057    -0.38200
C1731       C  0.10188284  0.54799491  0.52165858    -0.04900
C1732       C  0.09619355  0.58529788  0.99765338    -0.02000
C1733       C  0.10110383  0.57856590  0.96226025     0.03000
C1734       C  0.10135033  0.53337403  0.94991794    -0.04900
C1735       C  0.10172527  0.99281644  0.97286764    -0.02000
C1736       C  0.09857874  0.99827702  0.00894130     0.03000
C1737       C  0.09070472  0.63128586  0.00932583     0.37600
C1738       C  0.10252452  0.94712022  0.95942081     0.37600
C1739       C  0.09356790  0.96293442  0.53358194     0.36100
C1740       C  0.10678392  0.61857837  0.93909089     0.36100
N1741       N  0.09017836  0.93185623  0.55305528    -0.38800
N1742       N  0.11206201  0.65069626  0.92110323    -0.38800
N1743       N  0.10262004  0.91069872  0.94850755    -0.38200
N1744       N  0.08623077  0.66761991  0.51569477    -0.38200
C1745       C  0.93634438  0.74195005  0.75434964    -0.04900
C1746       C  0.95498985  0.78202305  0.74358145    -0.02000
C1747       C  0.99057615  0.78831534  0.75369245     0.03000
C1748       C  0.00851625  0.75388441  0.77425666    -0.04900
C1749       C  0.98968411  0.71299117  0.78433736    -0.02000
C1750       C  0.95382627  0.70732662  0.77449680     0.03000
C1751       C  0.93756123  0.81692941  0.72157211     0.37600
C1752       C  0.00701135  0.67592787  0.80422618     0.37600
C1753       C  0.93475606  0.66578700  0.78514127     0.36100
C1754       C  0.00809850  0.83121087  0.74347233     0.36100
N1755       N  0.91949918  0.63269099  0.79360939    -0.38800
N1756       N  0.02195778  0.86544153  0.73519081    -0.38800
N1757       N  0.02054367  0.64622799  0.82019166    -0.38200
N1758       N  0.92404842  0.84481189  0.70377411    -0.38200
C1759       C  0.50809291  0.98682702  0.75764866    -0.04900
C1760       C  0.48636844  0.94706788  0.76156207    -0.02000
C1761       C  0.44966817  0.95031270  0.75559881     0.03000
C1762       C  0.43443212  0.99328452  0.74658050    -0.04900
C1763       C  0.45534015  0.53155965  0.73884178    -0.02000
C1764       C  0.49193645  0.52805079  0.74449531     0.03000
C1765       C  0.50143554  0.90288329  0.77213310     0.37600
C1766       C  0.44072759  0.57222269  0.72094768     0.37600
C1767       C  0.51347481  0.56915800  0.73912616     0.36100
C1768       C  0.42733509  0.90975804  0.75956371     0.36100
N1769       N  0.53042027  0.60221197  0.73546748    -0.38800
N1770       N  0.40927531  0.87765667  0.76257635    -0.38800
N1771       N  0.42918823  0.60428914  0.70615349    -0.38200
N1772       N  0.51336722  0.86780209  0.78115279    -0.38200
C1773       C  0.70308626  0.86905739  0.57214641    -0.04900
C1774       C  0.73825005  0.85868577  0.56611787    -0.02000
C1775       C  0.76347568  0.88987824  0.57751264     0.03000
C1776       C  0.75152617  0.93363564  0.58651524    -0.04900
C1777       C  0.71901496  0.94893017  0.57186621    -0.02000
C1778       C  0.69339359  0.91517426  0.56574850     0.03000
C1779       C  0.74803666  0.81497288  0.55285835     0.37600
C1780       C  0.71076731  0.99736757  0.56744580     0.37600
C1781       C  0.65737651  0.92687795  0.55647105     0.36100
C1782       C  0.79782949  0.87247914  0.58754828     0.36100
N1783       N  0.62854022  0.93597249  0.54899338    -0.38800
N1784       N  0.82373087  0.85503757  0.59693293    -0.38800
N1785       N  0.70416376  0.03603523  0.56348051    -0.38200
N1786       N  0.75713804  0.78069595  0.54198947    -0.38200
C1787       C  0.59230801  0.70272751  0.71930788    -0.04900
C1788       C  0.57988976  0.74584335  0.70835381    -0.02000
C1789       C  0.60545788  0.77121570  0.69145773     0.03000
C1790       C  0.62007557  0.75135784  0.66249528    -0.04900
C1791       C  0.62103914  0.70243192  0.66304904    -0.02000
C1792       C  0.60943985  0.67798387  0.69360346     0.03000
C1793       C  0.55237940  0.76906300  0.72610732     0.37600
C1794       C  0.63734122  0.67835354  0.63552266     0.37600
C1795       C  0.61244494  0.62867850  0.69704311     0.36100
C1796       C  0.63017076  0.79419972  0.71434670     0.36100
N1797       N  0.61424071  0.58901127  0.69763983    -0.38800
N1798       N  0.65056623  0.81136297  0.73232253    -0.38800
N1799       N  0.65041325  0.65898180  0.61358279    -0.38200
N1800       N  0.53002079  0.78713492  0.74017918    -0.38200
C1801       C  0.61680634  0.74414860  0.93556378    -0.04900
C1802       C  0.58756396  0.73421512  0.95730661    -0.02000
C1803       C  0.59154730  0.73822944  0.99400427     0.03000
C1804       C  0.62026308  0.74847843  0.50900728    -0.04900
C1805       C  0.65439926  0.73948578  0.98670670    -0.02000
C1806       C  0.64982982  0.75142243  0.95169671     0.03000
C1807       C  0.55338297  0.72464385  0.94210246     0.37600
C1808       C  0.68875997  0.72683165  0.00040294     0.37600
C1809       C  0.67588249  0.78171275  0.93577728     0.36100
C1810       C  0.55586331  0.75887094  0.51062310     0.36100
N1811       N  0.69522988  0.80851116  0.92356041    -0.38800
N1812       N  0.53060269  0.76453904  0.52626257    -0.38800
N1813       N  0.70838621  0.71263915  0.52009650    -0.38200
N1814       N  0.52607837  0.71658369  0.92998307    -0.38200
C1815       C  0.69476608  0.66761926  0.91717663    -0.04900
C1816       C  0.72949769  0.67805882  0.92797560    -0.02000
C1817       C  0.75185889  0.64113491  0.93582759     0.03000
C1818       C  0.73862754  0.59658218  0.93052613    -0.04900
C1819       C  0.70267644  0.58883795  0.93674586    -0.02000
C1820       C  0.67974392  0.62547467  0.92913338     0.03000
C1821       C  0.74495529  0.72356868  0.92288194     0.37600
C1822       C  0.69003760  0.54437206  0.94976801     0.37600
C1823       C  0.64194308  0.61840118  0.92821741     0.36100
C1824       C  0.78916632  0.64979175  0.94015314     0.36100
N1825       N  0.61173765  0.61271788  0.92735184    -0.38800
N1826       N  0.81879701  0.65875788  0.94168056    -0.38800
N1827       N  0.67993498  0.50882651  0.96017811    -0.38200
N1828       N  0.75901719  0.75874285  0.91859017    -0.38200
C1829       C  0.82999769  0.47529556  0.86119568    -0.04900
C1830       C  0.81723367  0.43382681  0.84910901    -0.02000
C1831       C  0.81720759  0.42869470  0.81318085     0.03000
C1832       C  0.83603110  0.46157485  0.79211805    -0.04900
C1833       C  0.86427868  0.98412654  0.80567854    -0.02000
C1834       C  0.86223251  0.98863340  0.84172309     0.03000
C1835       C  0.79994191  0.40118642  0.87279636     0.37600
C1836       C  0.89171521  0.00844034  0.78643669     0.37600
C1837       C  0.88667988  0.01753257  0.86020917     0.36100
C1838       C  0.79575324  0.39263522  0.79877849     0.36100
N1839       N  0.90610395  0.04080950  0.87493901    -0.38800
N1840       N  0.77744962  0.36431740  0.78827473    -0.38800
N1841       N  0.91368926  0.02789871  0.77121231    -0.38200
N1842       N  0.78611402  0.37528641  0.89182591    -0.38200
C1843       C  0.84996037  0.51758359  0.50126442    -0.04900
C1844       C  0.84896620  0.97672812  0.51698596    -0.02000
C1845       C  0.85410448  0.97440720  0.55328120     0.03000
C1846       C  0.85095915  0.51263765  0.57430329    -0.04900
C1847       C  0.85353163  0.55573674  0.55637905    -0.02000
C1848       C  0.85524355  0.55786156  0.51993120     0.03000
C1849       C  0.84510937  0.93494585  0.49827540     0.37600
C1850       C  0.85606167  0.59750596  0.57550842     0.37600
C1851       C  0.86396455  0.60088642  0.50186158     0.36100
C1852       C  0.87004927  0.93419274  0.56990812     0.36100
N1853       N  0.87284819  0.63556799  0.48891213    -0.38800
N1854       N  0.88517319  0.90333785  0.58268176    -0.38800
N1855       N  0.85842913  0.63071707  0.59084992    -0.38200
N1856       N  0.86103508  0.89392322  0.99031909    -0.38200
loop_ 
_geom_bond_atom_site_label_1 
_geom_bond_atom_site_label_2 
_geom_bond_distance 
_geom_bond_site_symmetry_2 
_ccdc_geom_bond_type 
C1            C3   1.556       .  S
C1            C5   1.553       .  S
C1            C4   1.513       .  S
C1          C426   1.510       .  S
C2            C6   1.569       .  S
C2            C8   1.580       .  S
C2            C7   1.531       .  S
C2          C437   1.520   1_545  S
C3           C11   1.394       .  A
C3            C6   1.381       .  A
C4           C15   1.368       .  A
C4            C7   1.372       .  A
C5           C19   1.394       .  A
C5            C8   1.394       .  A
C6            C9   1.404       .  A
C7           C13   1.388       .  A
C8          C944   1.407   1_545  A
C9           N10   1.364       .  A
C9           H22   1.079       .  S
N10          C11   1.360       .  A
N10         C127   1.450       .  S
C11          H12   1.082       .  S
C13          N14   1.363       .  A
C13         H951   1.082   1_545  S
N14          C15   1.350       .  A
N14         C915   1.441       .  S
C15          H21   1.083       .  S
C16         C936   1.410       .  A
C16          N17   1.362       .  A
C16          H18   1.077       .  S
N17         C947   1.362       .  A
N17          C99   1.466       .  S
C19         N945   1.362   1_545  A
C19          H20   1.082       .  S
H23         C941   1.082       .  S
O24         Cr42   1.980       .  S
O24          C32   1.262       .  A
O25         Cr42   1.804       .  S
O25          C26   1.273       .  A
C26          O27   1.344       .  A
C26          C93   1.489       .  S
O27         Cr43   2.241       .  S
O28         Cr43   2.005       .  S
O28          C29   1.270       .  A
C29          O30   1.269       .  A
C29         C409   1.492       .  S
O30         Cr44   2.009       .  S
O31         Cr44   1.949       .  S
O31          C32   1.251       .  A
C32         C423   1.464       .  S
O33         Cr42   1.986       .  S
O33          C41   1.273       .  A
O34         Cr42   2.020       .  S
O34          C35   1.272       .  A
C35          O36   1.266       .  A
C35         C395   1.483       .  S
O36         Cr43   1.947       .  S
O37         Cr43   2.125       .  S
O37          C38   1.304       .  A
C38          O39   1.245       .  A
C38         C108   1.467       .  S
O39         Cr44   1.868       .  S
O40         Cr44   1.963       .  S
O40          C41   1.259       .  A
C41         C118   1.440       .  S
Cr42         O45   1.604       .  S
Cr43         O45   1.723       .  S
Cr44         O45   1.735       .  S
C46          C48   1.554       .  S
C46          C50   1.555       .  S
C46          C49   1.528       .  S
C46         C381   1.521       .  S
C47          C51   1.579       .  S
C47          C53   1.561       .  S
C47          C52   1.539       .  S
C47         C398   1.515       .  S
C48          C56   1.401       .  A
C48          C51   1.381       .  A
C49          C60   1.361       .  A
C49          C52   1.384       .  A
C50          C64   1.395       .  A
C50          C53   1.381       .  A
C51          C54   1.399       .  A
C52          C58   1.396       .  A
C53          C61   1.404       .  A
C54          N55   1.353       .  A
C54          H67   1.079       .  S
N55          C56   1.369       .  A
N55         C105   1.452       .  S
C56          H57   1.082       .  S
C58          N59   1.365       .  A
C58          H68   1.082       .  S
N59          C60   1.355       .  A
N59         C412   1.447       .  S
C60          H66   1.083       .  S
C61          N62   1.366       .  A
C61          H63   1.082       .  S
N62          C64   1.358       .  A
N62         C121   1.462       .  S
C64          H65   1.075       .  S
O69         Cr87   1.994       .  S
O69          C77   1.262       .  A
O70         Cr87   1.828       .  S
O70          C71   1.274       .  A
C71          O72   1.341       .  A
C71         C115   1.500       .  S
O72       Cr1016   2.239       .  S
O73         Cr88   1.981       .  S
O73          C74   1.269   1_565  A
C74          O75   1.276       .  A
C74         C454   1.489       .  S
O75         Cr89   2.011       .  S
O76       Cr1017   1.950       .  S
O76          C77   1.253       .  A
C77         C384   1.474       .  S
O78         Cr87   1.995       .  S
O78        C1014   1.277       .  A
O79         Cr87   1.982       .  S
O79        C1008   1.266       .  A
C80          O81   1.261       .  A
C80        O1007   1.266       .  A
C80         C440   1.477       .  S
O81         Cr88   1.955       .  S
O82         Cr88   2.096   1_545  S
O82          C83   1.295       .  A
C83          O84   1.252       .  A
C83         C130   1.464       .  S
O84         Cr89   1.894       .  S
O85         Cr89   2.000       .  S
O85          C86   1.271   1_545  A
C86        O1006   1.276       .  A
C86          C96   1.465       .  S
Cr87         O90   1.601       .  S
Cr88       O1000   2.239       .  S
Cr88       O1018   1.726       .  S
Cr89       O1004   1.955   1_545  S
Cr89       O1018   1.727   1_545  S
O90       Cr1016   1.730       .  S
O90       Cr1017   1.730       .  S
O91        Cr109   1.993       .  S
O91          C99   1.262       .  A
O92       Cr1037   2.027   1_545  S
O92          C93   1.259       .  A
C93          O94   1.270       .  A
O94        Cr110   2.001       .  S
O95        Cr110   2.016       .  S
O95          C96   1.265   1_545  A
C96        O1025   1.259       .  A
O97        Cr111   1.960       .  S
O97        C1024   1.260       .  A
O98        Cr111   2.053       .  S
O98          C99   1.280       .  A
O100       Cr109   2.047       .  S
O100        C108   1.266       .  A
O101       Cr109   1.966       .  S
O101        C102   1.263       .  A
C102       O1031   1.272       .  A
C102        C367   1.474       .  S
O103       Cr110   2.012       .  S
O103       C1030   1.271   1_545  A
O104      Cr1038   2.038       .  S
O104        C105   1.275       .  A
C105        O106   1.260       .  A
O106       Cr111   1.993       .  S
O107       Cr111   1.992       .  S
O107        C108   1.249       .  A
Cr109      O1020   2.025       .  S
Cr109       O112   1.805       .  S
Cr110      O1032   2.033   1_545  S
Cr110      O1040   1.765   1_545  S
Cr111       O112   1.753       .  S
O112      Cr1038   1.763       .  S
O113       Cr131   2.005       .  S
O113        C121   1.261       .  A
O114       Cr131   2.029       .  S
O114        C115   1.263       .  A
C115        O116   1.274       .  A
O116       Cr132   2.017       .  S
O117       Cr132   2.003       .  S
O117        C118   1.265       .  A
C118        O119   1.253       .  A
O119       Cr133   1.940       .  S
O120       Cr133   2.016       .  S
O120        C121   1.270       .  A
O122       Cr131   2.063       .  S
O122        C130   1.274       .  A
O123       Cr131   1.989       .  S
O123        C124   1.268       .  A
C124        O125   1.268       .  A
C124        C353   1.481       .  S
O125       Cr132   2.002       .  S
O126       Cr132   2.058       .  S
O126        C127   1.282       .  A
C127        O128   1.252       .  A
O128       Cr133   1.973       .  S
O129       Cr133   1.965       .  S
O129        C130   1.243       .  A
Cr131       O134   1.797       .  S
Cr132       O134   1.758       .  S
Cr133       O134   1.763       .  S
C135        C137   1.550       .  S
C135        C139   1.556       .  S
C135        C138   1.514       .  S
C135        C314   1.501       .  S
C136        C140   1.572       .  S
C136        C142   1.581       .  S
C136        C141   1.554       .  S
C136        C325   1.524       .  S
C137        C145   1.394       .  A
C137        C140   1.375       .  A
C138        C149   1.363       .  A
C138        C141   1.391       .  A
C139        C153   1.397       .  A
C139        C142   1.368       .  A
C140        C143   1.412       .  A
C141        C147   1.388       .  A
C142       C1078   1.413   1_545  A
C143        N144   1.371       .  A
C143        H156   1.079       .  S
N144        C145   1.360       .  A
N144        C239   1.460       .  S
C145        H146   1.082       .  S
C147        N148   1.364       .  A
C147       H1085   1.082       .  S
N148        C149   1.356       .  A
N148        C339   1.442       .  S
C149        H155   1.083       .  S
C150       C1070   1.412       .  A
C150        N151   1.366       .  A
C150        H152   1.075       .  S
N151       C1081   1.347       .  A
N151        C255   1.461       .  S
C153       N1079   1.348   1_545  A
C153        H154   1.083       .  S
H157       C1075   1.081       .  S
O158       Cr176   2.057       .  S
O158        C166   1.292       .  A
O159       Cr176   1.936       .  S
O159        C160   1.245       .  A
C160        O161   1.287       .  A
C160        C249   1.510       .  S
O161       Cr177   2.116       .  S
O162       Cr177   1.996       .  S
O162        C163   1.270       .  A
C163        O164   1.279       .  A
C163        C300   1.509       .  S
O164       Cr178   2.039       .  S
O165       Cr178   1.884       .  S
O165        C166   1.232       .  A
C166        C311   1.457       .  S
O167       Cr176   1.944       .  S
O167        C175   1.238       .  A
O168       Cr176   2.047       .  S
O168        C169   1.278       .  A
C169        O170   1.259       .  A
C169        C283   1.497       .  S
O170       Cr177   1.950       .  S
O171       Cr177   2.103       .  S
O171        C172   1.285       .  A
C172        O173   1.236       .  A
C172        C264   1.452       .  S
O173       Cr178   1.886       .  S
O174       Cr178   2.067       .  S
O174        C175   1.269       .  A
C175        C230   1.477       .  S
Cr176       O179   1.718       .  S
Cr177       O179   1.756       .  S
Cr178       O179   1.763       .  S
C180        C182   1.567       .  S
C180        C184   1.554       .  S
C180        C183   1.528       .  S
C180        C272   1.545       .  S
C181        C185   1.554       .  S
C181        C187   1.568       .  S
C181        C186   1.558       .  S
C181        C286   1.537       .  S
C182        C190   1.392       .  A
C182        C185   1.384       .  A
C183        C194   1.374       .  A
C183        C186   1.386       .  A
C184        C198   1.382       .  A
C184        C187   1.394       .  A
C185        C188   1.402       .  A
C186        C192   1.399       .  A
C187        C195   1.401       .  A
C188        N189   1.363       .  A
C188        H201   1.081       .  S
N189        C190   1.362       .  A
N189        C261   1.450       .  S
C190        H191   1.083       .  S
C192        N193   1.372       .  A
C192        H202   1.082       .  S
N193        C194   1.356       .  A
N193        C761   1.461       .  S
C194        H200   1.083       .  S
C195        N196   1.357       .  A
C195        H197   1.077       .  S
N196        C198   1.343       .  A
N196        C233   1.449       .  S
C198        H199   1.082       .  S
O203       Cr221   2.023       .  S
O203        C211   1.274       .  A
O204       Cr221   1.848       .  S
O204        C205   1.279       .  A
C205        O206   1.343       .  A
C205        C227   1.519       .  S
O206      Cr1150   2.244       .  S
O207       Cr222   1.990       .  S
O207        C208   1.272   1_565  A
C208        O209   1.276       .  A
C208        C342   1.494       .  S
O209       Cr223   2.006       .  S
O210      Cr1151   1.946       .  S
O210        C211   1.248       .  A
C211        C269   1.488       .  S
O212       Cr221   1.998       .  S
O212       C1148   1.280       .  A
O213       Cr221   2.015       .  S
O213        C214   1.272       .  A
C214       O1143   1.258       .  A
C214       C1256   1.481       .  S
O215       Cr222   1.933   1_545  S
O215       C1142   1.255   1_545  A
O216       Cr222   2.090   1_545  S
O216        C217   1.293       .  A
C217        O218   1.246       .  A
C217        C242   1.448       .  S
O218       Cr223   1.866       .  S
O219       Cr223   1.976       .  S
O219        C220   1.263       .  A
C220       O1140   1.277   1_545  A
C220        C252   1.453       .  S
Cr221       O224   1.597       .  S
Cr222      O1134   2.251       .  S
Cr222      O1152   1.730   1_565  S
Cr223      O1138   1.951       .  S
Cr223      O1152   1.732       .  S
O224      Cr1150   1.731       .  S
O224      Cr1151   1.728       .  S
O225       Cr243   1.994       .  S
O225        C233   1.264       .  A
O226       Cr243   2.030       .  S
O226        C227   1.264       .  A
C227        O228   1.281       .  A
O228       Cr244   2.044       .  S
O229       Cr244   2.036       .  S
O229        C230   1.268       .  A
C230        O231   1.266       .  A
O231       Cr245   1.969       .  S
O232       Cr245   2.016       .  S
O232        C233   1.263       .  A
O234       Cr243   2.033       .  S
O234        C242   1.268       .  A
O235       Cr243   1.976       .  S
O235        C236   1.262       .  A
C236        O237   1.268       .  A
C236        C356   1.498       .  S
O237       Cr244   2.004       .  S
O238       Cr244   2.079       .  S
O238        C239   1.283       .  A
C239        O240   1.251       .  A
O240       Cr245   1.978       .  S
O241       Cr245   1.976       .  S
O241        C242   1.252       .  A
Cr243       O246   1.798       .  S
Cr244       O246   1.759       .  S
Cr245       O246   1.754       .  S
O247       Cr265   2.026       .  S
O247        C255   1.266       .  A
O248      Cr1193   2.016   1_545  S
O248        C249   1.267       .  A
C249        O250   1.283       .  A
O250       Cr266   2.047       .  S
O251       Cr266   2.020       .  S
O251        C252   1.271       .  A
C252       O1181   1.262       .  A
O253       Cr267   1.947       .  S
O253       C1180   1.262       .  A
O254       Cr267   2.008       .  S
O254        C255   1.258       .  A
O256       Cr265   2.042       .  S
O256        C264   1.275       .  A
O257       Cr265   1.977       .  S
O257        C258   1.260       .  A
C258       O1187   1.262       .  A
C258        C370   1.482       .  S
O259       Cr266   1.973       .  S
O259       C1186   1.260   1_545  A
O260      Cr1194   2.069       .  S
O260        C261   1.276       .  A
C261        O262   1.244       .  A
O262       Cr267   1.970       .  S
O263       Cr267   1.944       .  S
O263        C264   1.251       .  A
Cr265      O1176   2.028       .  S
Cr265       O268   1.792       .  S
Cr266      O1188   2.072   1_545  S
Cr266      O1196   1.776   1_545  S
Cr267       O268   1.775       .  S
O268      Cr1194   1.771       .  S
C269        C270   1.393       .  A
C269        C274   1.382       .  A
C270        C271   1.413       .  A
C270        C275   1.447       .  S
C271        C272   1.453       .  A
C271        C278   1.450       .  S
C272        C273   1.448       .  A
C273        C274   1.384       .  A
C273        C276   1.431       .  S
C274        C277   1.442       .  S
C275        N282   1.157       .  T
C276        N281   1.159       .  T
C277        N279   1.157       .  T
C278        N280   1.157       .  T
C283        C284   1.424       .  A
C283        C288   1.416       .  A
C284        C285   1.410       .  A
C284        C289   1.450       .  S
C285        C286   1.403       .  A
C285        C292   1.449       .  S
C286        C287   1.407       .  A
C287        C288   1.409       .  A
C287        C290   1.449       .  S
C288        C291   1.445       .  S
C289        N296   1.157       .  T
C290        N295   1.157       .  T
C291        N293   1.156       .  T
C292        N294   1.157       .  T
C297        C298   1.411       .  A
C297        C302   1.413       .  A
C297        N657   1.456   1_554  S
C298        C299   1.421       .  A
C298        C303   1.446       .  S
C299        C300   1.420       .  A
C299        C306   1.445       .  S
C300        C301   1.414       .  A
C301        C302   1.411       .  A
C301        C304   1.451       .  S
C302        C305   1.445       .  S
C303        N774   1.157       .  T
C304        N309   1.157       .  T
C305        N307   1.156       .  T
C306        N308   1.157       .  T
N310        C767   1.157       .  T
C311        C312   1.404       .  A
C311        C316   1.381       .  A
C312        C313   1.415       .  A
C312        C317   1.448       .  S
C313        C314   1.431       .  A
C313        C320   1.445       .  S
C314        C315   1.417       .  A
C315        C316   1.362       .  A
C315        C318   1.466       .  S
C316        C319   1.440       .  S
C317        N324   1.157       .  T
C318        N323   1.158       .  T
C319        N321   1.155       .  T
C320        N322   1.156       .  T
C325        C326   1.394       .  A
C325       C1258   1.399   1_545  A
C326        C327   1.404       .  A
C326        C331   1.448       .  S
C327        C328   1.427   1_545  A
C327        C334   1.449       .  S
C328       C1257   1.419       .  A
C328       C1142   1.479       .  S
C329        C330   1.405       .  A
C329       C1256   1.418       .  A
C329        C332   1.449       .  S
C330       C1253   1.403       .  A
C330        C333   1.449       .  S
C331        N338   1.157       .  T
C332        N337   1.157       .  T
C333        N335   1.157       .  T
C334        N336   1.157       .  T
C339        C804   1.407   1_554  A
C339       C1736   1.411   1_545  A
C340        C341   1.403       .  A
C340        C803   1.410       .  A
C340        C345   1.449       .  S
C341        C342   1.415       .  A
C341        C348   1.452       .  S
C342       C1271   1.417   1_545  A
C343        C344   1.417       .  A
C343       C1270   1.418       .  A
C343        C346   1.448       .  S
C344       C1731   1.411       .  A
C344        C811   1.447       .  S
C345        N816   1.157       .  T
C346        N351   1.157       .  T
C347        C808   1.447       .  S
C347        N349   1.157       .  T
C348        N350   1.157       .  T
N352        C809   1.157       .  T
C353        C354   1.411       .  A
C353        C358   1.408       .  A
C354        C355   1.411       .  A
C354        C359   1.452       .  S
C355        C356   1.419   1_655  A
C355        C362   1.453   1_655  S
C356        C357   1.421   1_455  A
C357        C358   1.414       .  A
C357        C360   1.450   1_655  S
C358        C361   1.451       .  S
C359        N366   1.157       .  T
C360        N365   1.157       .  T
C361        N363   1.157       .  T
C362        N364   1.158       .  T
C367        C368   1.409       .  A
C367       C1300   1.408       .  A
C368        C369   1.410       .  A
C368        C373   1.450       .  S
C369        C370   1.415       .  A
C369        C376   1.451       .  S
C370       C1299   1.416       .  A
C371        C372   1.405       .  A
C371       C1298   1.421   1_545  A
C371        C374   1.454       .  S
C372       C1295   1.406   1_545  A
C372        C375   1.453       .  S
C373        N380   1.156       .  T
C374        N379   1.158       .  T
C375        N377   1.157       .  T
C376        N378   1.157       .  T
C381        C382   1.404       .  A
C381        C386   1.404       .  A
C382        C383   1.398       .  A
C382        C387   1.447       .  S
C383        C384   1.411       .  A
C383        C390   1.444       .  S
C384        C385   1.414       .  A
C385        C386   1.402       .  A
C385        C388   1.448       .  S
C386        C389   1.446       .  S
C387        N394   1.156       .  T
C388        N393   1.157       .  T
C389        N391   1.157       .  T
C390        N392   1.156       .  T
C395        C396   1.390       .  A
C395        C400   1.415       .  A
C396        C397   1.375       .  A
C396        C401   1.446       .  S
C397        C398   1.407       .  A
C397        C404   1.457       .  S
C398        C399   1.427       .  A
C399        C400   1.421       .  A
C399        C402   1.448       .  S
C400        C403   1.440       .  S
C401        N408   1.157       .  T
C402        N407   1.157       .  T
C403        N405   1.156       .  T
C404        N406   1.157       .  T
C409        C410   1.418       .  A
C409        C414   1.407       .  A
C410        C411   1.426       .  A
C410        C415   1.446       .  S
C411        C876   1.414       .  A
C411        C882   1.445       .  S
C412        C875   1.414   1_554  A
C412        C877   1.401   1_554  A
C413        C414   1.391       .  A
C413        C876   1.402       .  A
C413        C416   1.447       .  S
C414        C417   1.445       .  S
C415        N422   1.157       .  T
C416        N885   1.157       .  T
C417        N419   1.157       .  T
C418        C875   1.445   1_554  S
C418        N420   1.157       .  T
N421        C880   1.156       .  T
C423        C424   1.408       .  A
C423        C428   1.407       .  A
C424        C425   1.394       .  A
C424        C429   1.450       .  S
C425        C426   1.416       .  A
C425        C432   1.449       .  S
C426        C427   1.405       .  A
C427        C428   1.397       .  A
C427        C430   1.447       .  S
C428        C431   1.447       .  S
C429        N436   1.157       .  T
C430        N435   1.157       .  T
C431        N433   1.157       .  T
C432        N434   1.155       .  T
C437        C438   1.394       .  A
C437       C1370   1.401       .  A
C438        C439   1.400       .  A
C438        C443   1.449       .  S
C439        C440   1.423       .  A
C439        C446   1.449       .  S
C440       C1369   1.421       .  A
C441        C442   1.405       .  A
C441       C1368   1.422       .  A
C441        C444   1.448       .  S
C442       C1365   1.399       .  A
C442        C445   1.447       .  S
C443        N450   1.157       .  T
C444        N449   1.157       .  T
C445        N447   1.157       .  T
C446        N448   1.157       .  T
C451        C456   1.408       .  A
C451       C1380   1.409   1_545  A
C451        N478   1.445   1_554  S
C452        C453   1.410       .  A
C452       C1379   1.410       .  A
C452        C457   1.445       .  S
C453       C1382   1.410       .  A
C453        C460   1.444       .  S
C454        C455   1.410       .  A
C454       C1381   1.414   1_545  A
C455        C456   1.403       .  A
C455        C458   1.450       .  S
C456        C459   1.442   1_554  S
C457        N928   1.157   1_554  T
C458        N463   1.157       .  T
C459        N461   1.157       .  T
C460        N462   1.157       .  T
N464        C921   1.157       .  T
C465        C467   1.562       .  S
C465        C469   1.557       .  S
C465        C468   1.518       .  S
C465        C890   1.518       .  S
C466        C470   1.567       .  S
C466        C472   1.586   1_545  S
C466        C471   1.536       .  S
C466        C901   1.524   1_545  S
C467        C475   1.399       .  A
C467        C470   1.381       .  A
C468        C479   1.368       .  A
C468        C471   1.375       .  A
C469        C483   1.400       .  A
C469        C472   1.394   1_545  A
C470        C473   1.402       .  A
C471        C477   1.395   1_545  A
C472       C1408   1.411       .  A
C473        N474   1.362       .  A
C473        H486   1.078       .  S
N474        C475   1.362       .  A
N474        C591   1.454       .  S
C475        H476   1.080       .  S
C477        N478   1.364   1_565  A
C477       H1415   1.082       .  S
N478        C479   1.353       .  A
C479        H485   1.083       .  S
C480       C1400   1.410       .  A
C480        N481   1.364       .  A
C480        H482   1.076       .  S
N481       C1411   1.362       .  A
N481        C563   1.468       .  S
C483       N1409   1.364   1_545  A
C483        H484   1.081       .  S
H487       C1405   1.082       .  S
O488       Cr506   1.973       .  S
O488        C496   1.259       .  A
O489       Cr506   1.789       .  S
O489        C490   1.272       .  A
C490        O491   1.341       .  A
C490        C557   1.472       .  S
O491       Cr507   2.229       .  S
O492       Cr507   2.015       .  S
O492        C493   1.273       .  A
C493        O494   1.267       .  A
C493        C873   1.495       .  S
O494       Cr508   2.001       .  S
O495       Cr508   1.960       .  S
O495        C496   1.254       .  A
C496        C887   1.467       .  S
O497       Cr506   1.978       .  S
O497        C505   1.270       .  A
O498       Cr506   2.013       .  S
O498        C499   1.270       .  A
C499        O500   1.268       .  A
C499        C859   1.481       .  S
O500       Cr507   1.959       .  S
O501       Cr507   2.117       .  S
O501        C502   1.302       .  A
C502        O503   1.247       .  A
C502        C572   1.464       .  S
O503       Cr508   1.872       .  S
O504       Cr508   1.959       .  S
O504        C505   1.258       .  A
C505        C582   1.433       .  S
Cr506       O509   1.599       .  S
Cr507       O509   1.720       .  S
Cr508       O509   1.727       .  S
C510        C512   1.565       .  S
C510        C514   1.559       .  S
C510        C513   1.526       .  S
C510        C845   1.528       .  S
C511        C515   1.574       .  S
C511        C517   1.557       .  S
C511        C516   1.540       .  S
C511        C862   1.517       .  S
C512        C520   1.408       .  A
C512        C515   1.379       .  A
C513        C524   1.356       .  A
C513        C516   1.388       .  A
C514        C528   1.395       .  A
C514        C517   1.383       .  A
C515        C518   1.397       .  A
C516        C522   1.396       .  A
C517        C525   1.402       .  A
C518        N519   1.349       .  A
C518        H531   1.080       .  S
N519        C520   1.374       .  A
N519        C569   1.459       .  S
C520        H521   1.082       .  S
C522        N523   1.365       .  A
C522        H532   1.082       .  S
N523        C524   1.353       .  A
N523        C876   1.444       .  S
C524        H530   1.084       .  S
C525        N526   1.364       .  A
C525        H527   1.080       .  S
N526        C528   1.358       .  A
N526        C585   1.460       .  S
C528        H529   1.081       .  S
O533       Cr551   1.980       .  S
O533        C541   1.259       .  A
O534       Cr551   1.828       .  S
O534        C535   1.274       .  A
C535        O536   1.342       .  A
C535        C579   1.503       .  S
O536      Cr1480   2.241       .  S
O537       Cr552   1.991       .  S
O537        C538   1.270   1_565  A
C538        O539   1.277       .  A
C538        C918   1.490       .  S
O539       Cr553   2.016       .  S
O540      Cr1481   1.948       .  S
O540        C541   1.252       .  A
C541        C848   1.467       .  S
O542       Cr551   1.989       .  S
O542       C1478   1.275       .  A
O543       Cr551   1.976       .  S
O543       C1472   1.264       .  A
C544       O1471   1.265       .  A
C544        O545   1.263       .  A
C544        C904   1.478       .  S
O545       Cr552   1.963       .  S
O546       Cr552   2.092   1_545  S
O546        C547   1.295       .  A
C547        O548   1.253       .  A
C547        C594   1.458       .  S
O548       Cr553   1.892       .  S
O549       Cr553   2.011       .  S
O549        C550   1.273   1_545  A
C550       O1470   1.273       .  A
C550        C560   1.468       .  S
Cr551       O554   1.603       .  S
Cr552      O1464   2.240       .  S
Cr552      O1482   1.729       .  S
Cr553      O1468   1.954   1_545  S
Cr553      O1482   1.728   1_545  S
O554      Cr1480   1.729       .  S
O554      Cr1481   1.734       .  S
O555       Cr573   2.000       .  S
O555        C563   1.262       .  A
O556      Cr1501   2.017   1_545  S
O556        C557   1.256       .  A
C557        O558   1.267       .  A
O558       Cr574   1.985       .  S
O559       Cr574   2.022       .  S
O559        C560   1.265   1_545  A
C560       O1489   1.260       .  A
O561       Cr575   1.950       .  S
O561       C1488   1.257       .  A
O562       Cr575   2.048       .  S
O562        C563   1.277       .  A
O564       Cr573   2.042       .  S
O564        C572   1.268       .  A
O565       Cr573   1.965       .  S
O565        C566   1.264       .  A
C566       O1495   1.273       .  A
C566        C831   1.496       .  S
O567       Cr574   2.002       .  S
O567       C1494   1.271   1_545  A
O568      Cr1502   2.042       .  S
O568        C569   1.277       .  A
C569        O570   1.262       .  A
O570       Cr575   2.008       .  S
O571       Cr575   1.985       .  S
O571        C572   1.253       .  A
Cr573      O1484   2.019       .  S
Cr573       O576   1.808       .  S
Cr574      O1496   2.024   1_545  S
Cr574      O1504   1.764   1_545  S
Cr575       O576   1.757       .  S
O576      Cr1502   1.764       .  S
O577       Cr595   1.990       .  S
O577        C585   1.261       .  A
O578       Cr595   2.035       .  S
O578        C579   1.263       .  A
C579        O580   1.273       .  A
O580       Cr596   2.014       .  S
O581       Cr596   1.984       .  S
O581        C582   1.262       .  A
C582        O583   1.256       .  A
O583       Cr597   1.942       .  S
O584       Cr597   2.036       .  S
O584        C585   1.274       .  A
O586       Cr595   2.063       .  S
O586        C594   1.271       .  A
O587       Cr595   1.981       .  S
O587        C588   1.268       .  A
C588        O589   1.267       .  A
C588        C817   1.484       .  S
O589       Cr596   1.988       .  S
O590       Cr596   2.057       .  S
O590        C591   1.280       .  A
C591        O592   1.253       .  A
O592       Cr597   1.977       .  S
O593       Cr597   1.969       .  S
O593        C594   1.238       .  A
Cr595       O598   1.804       .  S
Cr596       O598   1.756       .  S
Cr597       O598   1.760       .  S
C599        C601   1.548       .  S
C599        C603   1.554       .  S
C599        C602   1.508       .  S
C599        C778   1.501       .  S
C600        C604   1.573       .  S
C600        C606   1.578       .  S
C600        C605   1.557       .  S
C600        C789   1.525       .  S
C601        C609   1.390       .  A
C601        C604   1.377       .  A
C602        C613   1.361       .  A
C602        C605   1.388       .  A
C603        C617   1.396       .  A
C603        C606   1.370       .  A
C604        C607   1.414       .  A
C605        C611   1.390       .  A
C606       C1542   1.408   1_545  A
C607        N608   1.374       .  A
C607        H620   1.080       .  S
N608        C609   1.358       .  A
N608        C703   1.461       .  S
C609        H610   1.082       .  S
C611        N612   1.368       .  A
C611       H1549   1.081       .  S
N612        C613   1.356       .  A
N612        C803   1.449       .  S
C613        H619   1.083       .  S
C614       C1534   1.419       .  A
C614        N615   1.373       .  A
C614        H616   1.074       .  S
N615       C1545   1.347       .  A
N615        C719   1.467       .  S
C617       N1543   1.348       .  A
C617        H618   1.081       .  S
H621       C1539   1.082       .  S
O622       Cr640   2.055       .  S
O622        C630   1.291       .  A
O623       Cr640   1.955       .  S
O623        C624   1.250       .  A
C624        O625   1.287       .  A
C624        C713   1.526       .  S
O625       Cr641   2.117       .  S
O626       Cr641   2.009       .  S
O626        C627   1.272       .  A
C627        O628   1.275       .  A
C627        C764   1.512       .  S
O628       Cr642   2.025       .  S
O629       Cr642   1.888       .  S
O629        C630   1.233       .  A
C630        C775   1.456       .  S
O631       Cr640   1.950       .  S
O631        C639   1.242       .  A
O632       Cr640   2.039       .  S
O632        C633   1.276       .  A
C633        O634   1.260       .  A
C633        C747   1.491       .  S
O634       Cr641   1.947       .  S
O635       Cr641   2.102       .  S
O635        C636   1.286       .  A
C636        O637   1.237       .  A
C636        C728   1.450       .  S
O637       Cr642   1.892       .  S
O638       Cr642   2.060       .  S
O638        C639   1.266       .  A
C639        C694   1.478       .  S
Cr640       O643   1.719       .  S
Cr641       O643   1.759       .  S
Cr642       O643   1.770       .  S
C644        C646   1.561       .  S
C644        C648   1.560       .  S
C644        C647   1.517       .  S
C644        C736   1.520       .  S
C645        C649   1.573       .  S
C645        C651   1.567       .  S
C645        C650   1.548       .  S
C645        C750   1.529       .  S
C646        C654   1.396       .  A
C646        C649   1.393       .  A
C647        C658   1.370       .  A
C647        C650   1.377       .  A
C648        C662   1.403       .  A
C648        C651   1.384       .  A
C649        C652   1.405       .  A
C650        C656   1.400       .  A
C651        C659   1.401       .  A
C652        N653   1.369       .  A
C652        H665   1.082       .  S
N653        C654   1.363       .  A
N653        C725   1.459       .  S
C654        H655   1.082       .  S
C656        N657   1.371       .  A
C656        H666   1.082       .  S
N657        C658   1.354       .  A
C658        H664   1.083   1_556  S
C659        N660   1.358       .  A
C659        H661   1.079       .  S
N660        C662   1.360       .  A
N660        C697   1.462       .  S
C662        H663   1.075       .  S
O667       Cr685   1.994       .  S
O667        C675   1.264       .  A
O668       Cr685   1.818       .  S
O668        C669   1.274       .  A
C669        O670   1.344       .  A
C669        C691   1.498       .  S
O670      Cr1614   2.242       .  S
O671       Cr686   1.979   1_565  S
O671        C672   1.269   1_565  A
C672        O673   1.278       .  A
C672        C806   1.486       .  S
O673       Cr687   2.016       .  S
O674      Cr1615   1.936       .  S
O674        C675   1.252       .  A
C675        C733   1.470       .  S
O676       Cr685   1.993       .  S
O676       C1612   1.275       .  A
O677       Cr685   1.992       .  S
O677        C678   1.269       .  A
C678       O1607   1.257       .  A
C678       C1720   1.472       .  S
O679       Cr686   1.946       .  S
O679       C1606   1.258   1_545  A
O680       Cr686   2.094       .  S
O680        C681   1.293       .  A
C681        O682   1.244       .  A
C681        C706   1.449       .  S
O682       Cr687   1.863       .  S
O683       Cr687   1.981       .  S
O683        C684   1.266       .  A
C684       O1604   1.279   1_545  A
C684        C716   1.456       .  S
Cr685       O688   1.597       .  S
Cr686      O1598   2.250   1_545  S
Cr686      O1616   1.733       .  S
Cr687      O1602   1.953       .  S
Cr687      O1616   1.736       .  S
O688      Cr1614   1.730       .  S
O688      Cr1615   1.726       .  S
O689       Cr707   2.011       .  S
O689        C697   1.262       .  A
O690       Cr707   2.020       .  S
O690        C691   1.260       .  A
C691        O692   1.278       .  A
O692       Cr708   2.019       .  S
O693       Cr708   2.051       .  S
O693        C694   1.271       .  A
C694        O695   1.261       .  A
O695       Cr709   1.959       .  S
O696       Cr709   2.029       .  S
O696        C697   1.271       .  A
O698       Cr707   2.041       .  S
O698        C706   1.270       .  A
O699       Cr707   1.968       .  S
O699        C700   1.260       .  A
C700        O701   1.268       .  A
C700        C820   1.472       .  S
O701       Cr708   2.004       .  S
O702       Cr708   2.070       .  S
O702        C703   1.281       .  A
C703        O704   1.257       .  A
O704       Cr709   1.993       .  S
O705       Cr709   1.967       .  S
O705        C706   1.247       .  A
Cr707       O710   1.796       .  S
Cr708       O710   1.755       .  S
Cr709       O710   1.742       .  S
O711       Cr729   2.022       .  S
O711        C719   1.269       .  A
O712      Cr1657   2.035   1_545  S
O712        C713   1.271       .  A
C713        O714   1.285       .  A
O714       Cr730   2.056       .  S
O715       Cr730   2.026       .  S
O715        C716   1.272       .  A
C716       O1645   1.261       .  A
O717       Cr731   1.934       .  S
O717       C1644   1.254       .  A
O718       Cr731   2.022       .  S
O718        C719   1.263       .  A
O720       Cr729   2.035       .  S
O720        C728   1.273       .  A
O721       Cr729   1.969       .  S
O721        C722   1.258       .  A
C722       O1651   1.265       .  A
C722        C834   1.471       .  S
O723       Cr730   1.989       .  S
O723       C1650   1.262   1_545  A
O724      Cr1658   2.071       .  S
O724        C725   1.277       .  A
C725        O726   1.250       .  A
O726       Cr731   1.990       .  S
O727       Cr731   1.953       .  S
O727        C728   1.250       .  A
Cr729      O1640   2.030       .  S
Cr729       O732   1.786       .  S
Cr730      O1652   2.081   1_545  S
Cr730      O1660   1.772   1_545  S
Cr731       O732   1.775       .  S
O732      Cr1658   1.774       .  S
C733        C734   1.416       .  A
C733        C738   1.413       .  A
C734        C735   1.399       .  A
C734        C739   1.451       .  S
C735        C736   1.405       .  A
C735        C742   1.445       .  S
C736        C737   1.400       .  A
C737        C738   1.399       .  A
C737        C740   1.448       .  S
C738        C741   1.444       .  S
C739        N746   1.157       .  T
C740        N745   1.157       .  T
C741        N743   1.156       .  T
C742        N744   1.156       .  T
C747        C748   1.422       .  A
C747        C752   1.415       .  A
C748        C749   1.406       .  A
C748        C753   1.449       .  S
C749        C750   1.400       .  A
C749        C756   1.448       .  S
C750        C751   1.411       .  A
C751        C752   1.409       .  A
C751        C754   1.451       .  S
C752        C755   1.447       .  S
C753        N760   1.157       .  T
C754        N759   1.157       .  T
C755        N757   1.157       .  T
C756        N758   1.157       .  T
C761        C762   1.415       .  A
C761        C766   1.417       .  A
C762        C763   1.423       .  A
C762        C767   1.447       .  S
C763        C764   1.417       .  A
C763        C770   1.445       .  S
C764        C765   1.414       .  A
C765        C766   1.412       .  A
C765        C768   1.453       .  S
C766        C769   1.444       .  S
C768        N773   1.157       .  T
C769        N771   1.156       .  T
C770        N772   1.158       .  T
C775        C776   1.404       .  A
C775        C780   1.385       .  A
C776        C777   1.415       .  A
C776        C781   1.449       .  S
C777        C778   1.432       .  A
C777        C784   1.446       .  S
C778        C779   1.411       .  A
C779        C780   1.366       .  A
C779        C782   1.465       .  S
C780        C783   1.440       .  S
C781        N788   1.158       .  T
C782        N787   1.158       .  T
C783        N785   1.155       .  T
C784        N786   1.157       .  T
C789        C790   1.394       .  A
C789       C1722   1.402   1_545  A
C790        C791   1.404       .  A
C790        C795   1.445       .  S
C791        C792   1.423   1_545  A
C791        C798   1.446       .  S
C792       C1721   1.420       .  A
C792       C1606   1.483       .  S
C793       C1720   1.423       .  A
C793        C794   1.399       .  A
C793        C796   1.445       .  S
C794       C1717   1.391       .  A
C794        C797   1.449       .  S
C795        N802   1.157       .  T
C796        N801   1.156       .  T
C797        N799   1.157       .  T
C798        N800   1.157       .  T
C803       C1272   1.415       .  A
C804        C805   1.405       .  A
C804        C809   1.448   1_556  S
C805        C806   1.413       .  A
C805        C812   1.451       .  S
C806       C1735   1.416   1_545  A
C807       C1734   1.415       .  A
C807        C808   1.417   1_556  A
C807        C810   1.444       .  S
C808       C1267   1.414       .  A
C810        N815   1.157       .  T
C811        N813   1.157       .  T
C812        N814   1.157       .  T
C817        C818   1.421       .  A
C817        C822   1.414       .  A
C818        C819   1.407       .  A
C818        C823   1.454       .  S
C819        C820   1.407   1_655  A
C819        C826   1.453   1_655  S
C820        C821   1.409   1_455  A
C821        C822   1.409       .  A
C821        C824   1.450   1_655  S
C822        C825   1.450       .  S
C823        N830   1.158       .  T
C824        N829   1.156       .  T
C825        N827   1.157       .  T
C826        N828   1.157       .  T
C831        C832   1.422       .  A
C831       C1764   1.422       .  A
C832        C833   1.411       .  A
C832        C837   1.451       .  S
C833        C834   1.408       .  A
C833        C840   1.453       .  S
C834       C1763   1.405       .  A
C835       C1762   1.406   1_545  A
C835        C836   1.406       .  A
C835        C838   1.453       .  S
C836       C1759   1.420   1_545  A
C836        C839   1.453       .  S
C837        N844   1.158       .  T
C838        N843   1.157       .  T
C839        N841   1.158       .  T
C840        N842   1.158       .  T
C845        C846   1.397       .  A
C845        C850   1.402       .  A
C846        C847   1.396       .  A
C846        C851   1.445       .  S
C847        C848   1.413       .  A
C847        C854   1.445       .  S
C848        C849   1.416       .  A
C849        C850   1.402       .  A
C849        C852   1.448       .  S
C850        C853   1.445       .  S
C851        N858   1.156       .  T
C852        N857   1.157       .  T
C853        N855   1.157       .  T
C854        N856   1.156       .  T
C859        C860   1.390       .  A
C859        C864   1.423       .  A
C860        C861   1.370       .  A
C860        C865   1.447       .  S
C861        C862   1.404       .  A
C861        C868   1.458       .  S
C862        C863   1.424       .  A
C863        C864   1.425       .  A
C863        C866   1.448       .  S
C864        C867   1.439       .  S
C865        N872   1.157       .  T
C866        N871   1.158       .  T
C867        N869   1.155       .  T
C868        N870   1.157       .  T
C873        C874   1.419       .  A
C873        C878   1.411       .  A
C874        C875   1.427       .  A
C874        C879   1.446       .  S
C877        C878   1.391       .  A
C877        C880   1.445   1_556  S
C878        C881   1.446       .  S
C879        N886   1.157       .  T
C881        N883   1.157       .  T
C882        N884   1.157       .  T
C887        C888   1.413       .  A
C887        C892   1.413       .  A
C888        C889   1.397       .  A
C888        C893   1.451       .  S
C889        C890   1.409       .  A
C889        C896   1.446       .  S
C890        C891   1.400       .  A
C891        C892   1.400       .  A
C891        C894   1.447       .  S
C892        C895   1.448       .  S
C893        N900   1.157       .  T
C894        N899   1.157       .  T
C895        N897   1.157       .  T
C896        N898   1.154       .  T
C901        C902   1.392       .  A
C901       C1834   1.403       .  A
C902        C903   1.400       .  A
C902        C907   1.449       .  S
C903        C904   1.425       .  A
C903        C910   1.449       .  S
C904       C1833   1.421       .  A
C905       C1832   1.420       .  A
C905        C906   1.405       .  A
C905        C908   1.449       .  S
C906       C1829   1.403       .  A
C906        C909   1.449       .  S
C907        N914   1.157       .  T
C908        N913   1.157       .  T
C909        N911   1.157       .  T
C910        N912   1.157       .  T
C915       C1844   1.408   1_545  A
C915        C920   1.412       .  A
C916       C1843   1.410       .  A
C916        C917   1.414       .  A
C916        C921   1.446       .  S
C917       C1846   1.412       .  A
C917        C924   1.442       .  S
C918       C1845   1.411   1_545  A
C918        C919   1.409       .  A
C919        C920   1.407       .  A
C919        C922   1.451       .  S
C920        C923   1.445       .  S
C922        N927   1.157       .  T
C923        N925   1.156       .  T
C924        N926   1.157       .  T
C929        C931   1.553       .  S
C929        C933   1.554       .  S
C929        C932   1.512       .  S
C929       C1354   1.513       .  S
C930        C934   1.576       .  S
C930        C936   1.583       .  S
C930        C935   1.540       .  S
C930       C1365   1.524       .  S
C931        C939   1.392       .  A
C931        C934   1.383       .  A
C932        C943   1.366       .  A
C932        C935   1.374       .  A
C933        C947   1.397       .  A
C933        C936   1.392       .  A
C934        C937   1.408       .  A
C935        C941   1.394       .  A
C937        N938   1.368       .  A
C937        H950   1.079       .  S
N938        C939   1.358       .  A
N938       C1055   1.454       .  S
C939        H940   1.082       .  S
C941        N942   1.367       .  A
N942        C943   1.351       .  A
N942       C1843   1.446       .  S
C943        H949   1.083       .  S
C944        N945   1.361       .  A
C944        H946   1.076       .  S
N945       C1027   1.462       .  S
C947        H948   1.081       .  S
O952       Cr970   1.977       .  S
O952        C960   1.261       .  A
O953       Cr970   1.795       .  S
O953        C954   1.271       .  A
C954        O955   1.344       .  A
C954       C1021   1.485       .  S
O955       Cr971   2.241       .  S
O956       Cr971   1.997       .  S
O956        C957   1.268       .  A
C957        O958   1.269       .  A
C957       C1337   1.486       .  S
O958       Cr972   2.010       .  S
O959       Cr972   1.954       .  S
O959        C960   1.254       .  A
C960       C1351   1.466       .  S
O961       Cr970   1.983       .  S
O961        C969   1.270       .  A
O962       Cr970   2.018       .  S
O962        C963   1.273       .  A
C963        O964   1.259       .  A
C963       C1323   1.474       .  S
O964       Cr971   1.934       .  S
O965       Cr971   2.121       .  S
O965        C966   1.305       .  A
C966        O967   1.250       .  A
C966       C1036   1.467       .  S
O967       Cr972   1.881       .  S
O968       Cr972   1.984       .  S
O968        C969   1.264       .  A
C969       C1046   1.453       .  S
Cr970       O973   1.602       .  S
Cr971       O973   1.726       .  S
Cr972       O973   1.736       .  S
C974        C976   1.554       .  S
C974        C978   1.559       .  S
C974        C977   1.535       .  S
C974       C1309   1.524       .  S
C975        C979   1.577       .  S
C975        C981   1.557       .  S
C975        C980   1.539       .  S
C975       C1326   1.513       .  S
C976        C984   1.402       .  A
C976        C979   1.378       .  A
C977        C988   1.361       .  A
C977        C980   1.388       .  A
C978        C992   1.399       .  A
C978        C981   1.380       .  A
C979        C982   1.397       .  A
C980        C986   1.397       .  A
C981        C989   1.403       .  A
C982        N983   1.350       .  A
C982        H995   1.079       .  S
N983        C984   1.370       .  A
N983       C1033   1.452       .  S
C984        H985   1.082       .  S
C986        N987   1.366       .  A
C986        H996   1.082       .  S
N987        C988   1.358       .  A
N987       C1340   1.450       .  S
C988        H994   1.083       .  S
C989        N990   1.366       .  A
C989        H991   1.082       .  S
N990        C992   1.360       .  A
N990       C1049   1.464       .  S
C992        H993   1.076       .  S
O997      Cr1015   2.002       .  S
O997       C1005   1.263       .  A
O998      Cr1015   1.826       .  S
O998        C999   1.274       .  A
C999       O1000   1.342       .  A
C999       C1043   1.497       .  S
O1001     Cr1016   1.979       .  S
O1001      C1002   1.268       .  A
C1002      O1003   1.276       .  A
C1002      C1382   1.484       .  S
O1003     Cr1017   2.012       .  S
O1004      C1005   1.255       .  A
C1005      C1312   1.477       .  S
O1006     Cr1015   1.990       .  S
O1007     Cr1015   1.987       .  S
C1008      O1009   1.261       .  A
C1008      C1368   1.478       .  S
O1009     Cr1016   1.959       .  S
O1010     Cr1016   2.090       .  S
O1010      C1011   1.294       .  A
C1011      O1012   1.250       .  A
C1011      C1058   1.452       .  S
O1012     Cr1017   1.881       .  S
O1013     Cr1017   2.004       .  S
O1013      C1014   1.272       .  A
C1014      C1024   1.471       .  S
Cr1015     O1018   1.605       .  S
O1019     Cr1037   1.983       .  S
O1019      C1027   1.261       .  A
O1020      C1021   1.258       .  A
C1021      O1022   1.271       .  A
O1022     Cr1038   1.999       .  S
O1023     Cr1038   2.025       .  S
O1023      C1024   1.268       .  A
O1025     Cr1039   1.957       .  S
O1026     Cr1039   2.053       .  S
O1026      C1027   1.281       .  A
O1028     Cr1037   2.045       .  S
O1028      C1036   1.266       .  A
O1029     Cr1037   1.965       .  S
O1029      C1030   1.263       .  A
C1030      C1295   1.468       .  S
O1031     Cr1038   2.016       .  S
O1032      C1033   1.275       .  A
C1033      O1034   1.262       .  A
O1034     Cr1039   1.996       .  S
O1035     Cr1039   1.992       .  S
O1035      C1036   1.249       .  A
Cr1037     O1040   1.804       .  S
Cr1039     O1040   1.755       .  S
O1041     Cr1059   2.009       .  S
O1041      C1049   1.263       .  A
O1042     Cr1059   2.018       .  S
O1042      C1043   1.259       .  A
C1043      O1044   1.277       .  A
O1044     Cr1060   2.024       .  S
O1045     Cr1060   2.017       .  S
O1045      C1046   1.268       .  A
C1046      O1047   1.256       .  A
O1047     Cr1061   1.948       .  S
O1048     Cr1061   2.026       .  S
O1048      C1049   1.272       .  A
O1050     Cr1059   2.049       .  S
O1050      C1058   1.270       .  A
O1051     Cr1059   1.988       .  S
O1051      C1052   1.268       .  A
C1052      O1053   1.270       .  A
C1052      C1281   1.488       .  S
O1053     Cr1060   2.006       .  S
O1054     Cr1060   2.064       .  S
O1054      C1055   1.282       .  A
C1055      O1056   1.253       .  A
O1056     Cr1061   1.973       .  S
O1057     Cr1061   1.966       .  S
O1057      C1058   1.241       .  A
Cr1059     O1062   1.800       .  S
Cr1060     O1062   1.755       .  S
Cr1061     O1062   1.759       .  S
C1063      C1065   1.550       .  S
C1063      C1067   1.551       .  S
C1063      C1066   1.513       .  S
C1063      C1242   1.504       .  S
C1064      C1068   1.568       .  S
C1064      C1070   1.582       .  S
C1064      C1069   1.559       .  S
C1064      C1253   1.528       .  S
C1065      C1073   1.392       .  A
C1065      C1068   1.376       .  A
C1066      C1077   1.362       .  A
C1066      C1069   1.392       .  A
C1067      C1081   1.396       .  A
C1067      C1070   1.367       .  A
C1068      C1071   1.410       .  A
C1069      C1075   1.389       .  A
C1071      N1072   1.372       .  A
C1071      H1084   1.080       .  S
N1072      C1073   1.360       .  A
N1072      C1167   1.457       .  S
C1073      H1074   1.082       .  S
C1075      N1076   1.368       .  A
N1076      C1077   1.357       .  A
N1076      C1267   1.448       .  S
C1077      H1083   1.083       .  S
C1078      N1079   1.368       .  A
C1078      H1080   1.067       .  S
N1079      C1183   1.464       .  S
C1081      H1082   1.081       .  S
O1086     Cr1104   2.056       .  S
O1086      C1094   1.293       .  A
O1087     Cr1104   1.933       .  S
O1087      C1088   1.243       .  A
C1088      O1089   1.290       .  A
C1088      C1177   1.516       .  S
O1089     Cr1105   2.127       .  S
O1090     Cr1105   2.007       .  S
O1090      C1091   1.272       .  A
C1091      O1092   1.277       .  A
C1091      C1228   1.508       .  S
O1092     Cr1106   2.029       .  S
O1093     Cr1106   1.881       .  S
O1093      C1094   1.232       .  A
C1094      C1239   1.456       .  S
O1095     Cr1104   1.944       .  S
O1095      C1103   1.236       .  A
O1096     Cr1104   2.047       .  S
O1096      C1097   1.278       .  A
C1097      O1098   1.258       .  A
C1097      C1211   1.498       .  S
O1098     Cr1105   1.946       .  S
O1099     Cr1105   2.118       .  S
O1099      C1100   1.289       .  A
C1100      O1101   1.236       .  A
C1100      C1192   1.461       .  S
O1101     Cr1106   1.888       .  S
O1102     Cr1106   2.060       .  S
O1102      C1103   1.267       .  A
C1103      C1158   1.472       .  S
Cr1104     O1107   1.717       .  S
Cr1105     O1107   1.754       .  S
Cr1106     O1107   1.762       .  S
C1108      C1110   1.566       .  S
C1108      C1112   1.548       .  S
C1108      C1111   1.527       .  S
C1108      C1200   1.537       .  S
C1109      C1113   1.555       .  S
C1109      C1115   1.574       .  S
C1109      C1114   1.560       .  S
C1109      C1214   1.534       .  S
C1110      C1118   1.393       .  A
C1110      C1113   1.383       .  A
C1111      C1122   1.374       .  A
C1111      C1114   1.383       .  A
C1112      C1126   1.382       .  A
C1112      C1115   1.390       .  A
C1113      C1116   1.404       .  A
C1114      C1120   1.399       .  A
C1115      C1123   1.405       .  A
C1116      N1117   1.364       .  A
C1116      H1129   1.081       .  S
N1117      C1118   1.363       .  A
N1117      C1189   1.452       .  S
C1118      H1119   1.083       .  S
C1120      N1121   1.375       .  A
C1120      H1130   1.081       .  S
N1121      C1122   1.358       .  A
N1121      C1689   1.467       .  S
C1122      H1128   1.082       .  S
C1123      N1124   1.362       .  A
C1123      H1125   1.080       .  S
N1124      C1126   1.346       .  A
N1124      C1161   1.453       .  S
C1126      H1127   1.071       .  S
O1131     Cr1149   2.015       .  S
O1131      C1139   1.274       .  A
O1132     Cr1149   1.845       .  S
O1132      C1133   1.277       .  A
C1133      O1134   1.345       .  A
C1133      C1155   1.519       .  S
O1135     Cr1150   1.992       .  S
O1135      C1136   1.274       .  A
C1136      O1137   1.277       .  A
C1136      C1270   1.494       .  S
O1137     Cr1151   2.008       .  S
O1138      C1139   1.249   1_545  A
C1139      C1197   1.491       .  S
O1140     Cr1149   1.991       .  S
O1141     Cr1149   2.017       .  S
O1141      C1142   1.273       .  A
O1143     Cr1150   1.943       .  S
O1144     Cr1150   2.082       .  S
O1144      C1145   1.289       .  A
C1145      O1146   1.245       .  A
C1145      C1170   1.444       .  S
O1146     Cr1151   1.865       .  S
O1147     Cr1151   1.976       .  S
O1147      C1148   1.264       .  A
C1148      C1180   1.454       .  S
Cr1149     O1152   1.597   1_565  S
O1153     Cr1171   2.002       .  S
O1153      C1161   1.267       .  A
O1154     Cr1171   2.033       .  S
O1154      C1155   1.264       .  A
C1155      O1156   1.280       .  A
O1156     Cr1172   2.041       .  S
O1157     Cr1172   2.028       .  S
O1157      C1158   1.267       .  A
C1158      O1159   1.267       .  A
O1159     Cr1173   1.968       .  S
O1160     Cr1173   2.017       .  S
O1160      C1161   1.264       .  A
O1162     Cr1171   2.030       .  S
O1162      C1170   1.266       .  A
O1163     Cr1171   1.981       .  S
O1163      C1164   1.263       .  A
C1164      O1165   1.266       .  A
C1164      C1284   1.487       .  S
O1165     Cr1172   2.002       .  S
O1166     Cr1172   2.078       .  S
O1166      C1167   1.283       .  A
C1167      O1168   1.249       .  A
O1168     Cr1173   1.969       .  S
O1169     Cr1173   1.978       .  S
O1169      C1170   1.250       .  A
Cr1171     O1174   1.796       .  S
Cr1172     O1174   1.761       .  S
Cr1173     O1174   1.754       .  S
O1175     Cr1193   2.029   1_545  S
O1175      C1183   1.265   1_545  A
O1176      C1177   1.269       .  A
C1177      O1178   1.283       .  A
O1178     Cr1194   2.046       .  S
O1179     Cr1194   2.023       .  S
O1179      C1180   1.273       .  A
O1181     Cr1195   1.946   1_545  S
O1182     Cr1195   2.008       .  S
O1182      C1183   1.257       .  A
O1184     Cr1193   2.050       .  S
O1184      C1192   1.278       .  A
O1185     Cr1193   1.975       .  S
O1185      C1186   1.260       .  A
C1186      C1298   1.490       .  S
O1187     Cr1194   1.980       .  S
O1188      C1189   1.276       .  A
C1189      O1190   1.244       .  A
O1190     Cr1195   1.972       .  S
O1191     Cr1195   1.942       .  S
O1191      C1192   1.254       .  A
Cr1193     O1196   1.795       .  S
Cr1195     O1196   1.778       .  S
C1197      C1198   1.392       .  A
C1197      C1202   1.386       .  A
C1198      C1199   1.411       .  A
C1198      C1203   1.446   1_565  S
C1199      C1200   1.451       .  A
C1199      C1206   1.451       .  S
C1200      C1201   1.445       .  A
C1201      C1202   1.385       .  A
C1201      C1204   1.434       .  S
C1202      C1205   1.441       .  S
C1203      N1210   1.157       .  T
C1204      N1209   1.159       .  T
C1205      N1207   1.157       .  T
C1206      N1208   1.158       .  T
C1211      C1212   1.428       .  A
C1211      C1216   1.418       .  A
C1212      C1213   1.409       .  A
C1212      C1217   1.450       .  S
C1213      C1214   1.399       .  A
C1213      C1220   1.449       .  S
C1214      C1215   1.403       .  A
C1215      C1216   1.409       .  A
C1215      C1218   1.449       .  S
C1216      C1219   1.444       .  S
C1217      N1224   1.157       .  T
C1218      N1223   1.157       .  T
C1219      N1221   1.156       .  T
C1220      N1222   1.157       .  T
C1225      C1226   1.418       .  A
C1225      C1230   1.418       .  A
C1225      N1585   1.462   1_554  S
C1226      C1227   1.423       .  A
C1226      C1231   1.447       .  S
C1227      C1228   1.415       .  A
C1227      C1234   1.446       .  S
C1228      C1229   1.411       .  A
C1229      C1230   1.412       .  A
C1229      C1232   1.453       .  S
C1230      C1233   1.444       .  S
C1231      N1702   1.157       .  T
C1232      N1237   1.157       .  T
C1233      N1235   1.156       .  T
C1234      N1236   1.157       .  T
N1238      C1695   1.157       .  T
C1239      C1240   1.401       .  A
C1239      C1244   1.380       .  A
C1240      C1241   1.414       .  A
C1240      C1245   1.448       .  S
C1241      C1242   1.431       .  A
C1241      C1248   1.443       .  S
C1242      C1243   1.419       .  A
C1243      C1244   1.365       .  A
C1243      C1246   1.465       .  S
C1244      C1247   1.442       .  S
C1245      N1252   1.157       .  T
C1246      N1251   1.158       .  T
C1247      N1249   1.156       .  T
C1248      N1250   1.156       .  T
C1253      C1254   1.398       .  A
C1254      C1255   1.405       .  A
C1254      C1259   1.446       .  S
C1255      C1256   1.422       .  A
C1255      C1262   1.448       .  S
C1257      C1258   1.404       .  A
C1257      C1260   1.447       .  S
C1258      C1261   1.448       .  S
C1259      N1266   1.157       .  T
C1260      N1265   1.157       .  T
C1261      N1263   1.157       .  T
C1262      N1264   1.157       .  T
C1267      C1732   1.409   1_554  A
C1268      C1731   1.406       .  A
C1268      C1269   1.404       .  A
C1268      C1273   1.449       .  S
C1269      C1270   1.417       .  A
C1269      C1276   1.452       .  S
C1271      C1272   1.419   1_565  A
C1271      C1274   1.449       .  S
C1272      C1739   1.447   1_545  S
C1273      N1744   1.157       .  T
C1274      N1279   1.157       .  T
C1275      C1736   1.447       .  S
C1275      N1277   1.157       .  T
C1276      N1278   1.157       .  T
N1280      C1737   1.157       .  T
C1281      C1282   1.417       .  A
C1281      C1286   1.412       .  A
C1282      C1283   1.411       .  A
C1282      C1287   1.452       .  S
C1283      C1284   1.412   1_655  A
C1283      C1290   1.452   1_655  S
C1284      C1285   1.415   1_455  A
C1285      C1286   1.414       .  A
C1285      C1288   1.450   1_655  S
C1286      C1289   1.450       .  S
C1287      N1294   1.157       .  T
C1288      N1293   1.157       .  T
C1289      N1291   1.157       .  T
C1290      N1292   1.158       .  T
C1295      C1296   1.407       .  A
C1296      C1297   1.410       .  A
C1296      C1301   1.451       .  S
C1297      C1298   1.419       .  A
C1297      C1304   1.451       .  S
C1299      C1300   1.405       .  A
C1299      C1302   1.453       .  S
C1300      C1303   1.452       .  S
C1301      N1308   1.157       .  T
C1302      N1307   1.157       .  T
C1303      N1305   1.157       .  T
C1304      N1306   1.158       .  T
C1309      C1310   1.403       .  A
C1309      C1314   1.406       .  A
C1310      C1311   1.400       .  A
C1310      C1315   1.446       .  S
C1311      C1312   1.409       .  A
C1311      C1318   1.442       .  S
C1312      C1313   1.412       .  A
C1313      C1314   1.403       .  A
C1313      C1316   1.447       .  S
C1314      C1317   1.446       .  S
C1315      N1322   1.156       .  T
C1316      N1321   1.157   1_565  T
C1317      N1319   1.157       .  T
C1318      N1320   1.156       .  T
C1323      C1324   1.391       .  A
C1323      C1328   1.416       .  A
C1324      C1325   1.368       .  A
C1324      C1329   1.449       .  S
C1325      C1326   1.403       .  A
C1325      C1332   1.457       .  S
C1326      C1327   1.423       .  A
C1327      C1328   1.422       .  A
C1327      C1330   1.446       .  S
C1328      C1331   1.440       .  S
C1329      N1336   1.157       .  T
C1330      N1335   1.157       .  T
C1331      N1333   1.156       .  T
C1332      N1334   1.157       .  T
C1337      C1338   1.418       .  A
C1337      C1342   1.404       .  A
C1338      C1339   1.425       .  A
C1338      C1343   1.447       .  S
C1339      C1804   1.412       .  A
C1339      C1810   1.446       .  S
C1340      C1803   1.417   1_554  A
C1340      C1805   1.398   1_554  A
C1341      C1804   1.403       .  A
C1341      C1342   1.390       .  A
C1341      C1344   1.446       .  S
C1342      C1345   1.446       .  S
C1343      N1350   1.157       .  T
C1344      N1813   1.156       .  T
C1345      N1347   1.157       .  T
C1346      C1803   1.445   1_554  S
C1346      N1348   1.157       .  T
N1349      C1808   1.156       .  T
C1351      C1352   1.412       .  A
C1351      C1356   1.412       .  A
C1352      C1353   1.397       .  A
C1352      C1357   1.450       .  S
C1353      C1354   1.411       .  A
C1353      C1360   1.449       .  S
C1354      C1355   1.401       .  A
C1355      C1356   1.398       .  A
C1355      C1358   1.448       .  S
C1356      C1359   1.448       .  S
C1357      N1364   1.157       .  T
C1358      N1363   1.157       .  T
C1359      N1361   1.157       .  T
C1360      N1362   1.156       .  T
C1365      C1366   1.396       .  A
C1366      C1367   1.401       .  A
C1366      C1371   1.449       .  S
C1367      C1368   1.423       .  A
C1367      C1374   1.450       .  S
C1369      C1370   1.404       .  A
C1369      C1372   1.449   1_565  S
C1370      C1373   1.449   1_565  S
C1371      N1378   1.157       .  T
C1372      N1377   1.157       .  T
C1373      N1375   1.157       .  T
C1374      N1376   1.157       .  T
C1379      C1384   1.413       .  A
C1379      N1406   1.443   1_554  S
C1380      C1381   1.415       .  A
C1380      C1385   1.445       .  S
C1381      C1388   1.445       .  S
C1382      C1383   1.406       .  A
C1383      C1384   1.405       .  A
C1383      C1386   1.451       .  S
C1384      C1387   1.443   1_554  S
C1385      N1856   1.157   1_554  T
C1386      N1391   1.158       .  T
C1387      N1389   1.157       .  T
C1388      N1390   1.158       .  T
N1392      C1849   1.157       .  T
C1393      C1395   1.564       .  S
C1393      C1397   1.556       .  S
C1393      C1396   1.520       .  S
C1393      C1818   1.516       .  S
C1394      C1398   1.563       .  S
C1394      C1400   1.582       .  S
C1394      C1399   1.532       .  S
C1394      C1829   1.523       .  S
C1395      C1403   1.400       .  A
C1395      C1398   1.383       .  A
C1396      C1407   1.372       .  A
C1396      C1399   1.377       .  A
C1397      C1411   1.398       .  A
C1397      C1400   1.392       .  A
C1398      C1401   1.399       .  A
C1399      C1405   1.390       .  A
C1401      N1402   1.360       .  A
C1401      H1414   1.077       .  S
N1402      C1403   1.364       .  A
N1402      C1519   1.452       .  S
C1403      H1404   1.082       .  S
C1405      N1406   1.362       .  A
N1406      C1407   1.352       .  A
C1407      H1413   1.083       .  S
C1408      N1409   1.365       .  A
C1408      H1410   1.076       .  S
N1409      C1491   1.471       .  S
C1411      H1412   1.082       .  S
O1416     Cr1434   1.979       .  S
O1416      C1424   1.261       .  A
O1417     Cr1434   1.791       .  S
O1417      C1418   1.272       .  A
C1418      O1419   1.346       .  A
C1418      C1485   1.483       .  S
O1419     Cr1435   2.245       .  S
O1420     Cr1435   2.018       .  S
O1420      C1421   1.271       .  A
C1421      O1422   1.267       .  A
C1421      C1801   1.499       .  S
O1422     Cr1436   2.008       .  S
O1423     Cr1436   1.945       .  S
O1423      C1424   1.252       .  A
C1424      C1815   1.464       .  S
O1425     Cr1434   1.986       .  S
O1425      C1433   1.272       .  A
O1426     Cr1434   2.018       .  S
O1426      C1427   1.272       .  A
C1427      O1428   1.265       .  A
C1427      C1787   1.480       .  S
O1428     Cr1435   1.947       .  S
O1429     Cr1435   2.135       .  S
O1429      C1430   1.307       .  A
C1430      O1431   1.244       .  A
C1430      C1500   1.469       .  S
O1431     Cr1436   1.863       .  S
O1432     Cr1436   1.967       .  S
O1432      C1433   1.259       .  A
C1433      C1510   1.447       .  S
Cr1434     O1437   1.601       .  S
Cr1435     O1437   1.721       .  S
Cr1436     O1437   1.730       .  S
C1438      C1440   1.553       .  S
C1438      C1442   1.562       .  S
C1438      C1441   1.523       .  S
C1438      C1773   1.521       .  S
C1439      C1443   1.572       .  S
C1439      C1445   1.560       .  S
C1439      C1444   1.539       .  S
C1439      C1790   1.513       .  S
C1440      C1448   1.399       .  A
C1440      C1443   1.377       .  A
C1441      C1452   1.355       .  A
C1441      C1444   1.385       .  A
C1442      C1456   1.400       .  A
C1442      C1445   1.383       .  A
C1443      C1446   1.395       .  A
C1444      C1450   1.395       .  A
C1445      C1453   1.403       .  A
C1446      N1447   1.349       .  A
C1446      H1459   1.080       .  S
N1447      C1448   1.368       .  A
N1447      C1497   1.447       .  S
C1448      H1449   1.082       .  S
C1450      N1451   1.365       .  A
C1450      H1460   1.082       .  S
N1451      C1452   1.353       .  A
N1451      C1804   1.442       .  S
C1452      H1458   1.084       .  S
C1453      N1454   1.366       .  A
C1453      H1455   1.083       .  S
N1454      C1456   1.363       .  A
N1454      C1513   1.467       .  S
C1456      H1457   1.072       .  S
O1461     Cr1479   1.982       .  S
O1461      C1469   1.262       .  A
O1462     Cr1479   1.828       .  S
O1462      C1463   1.273       .  A
C1463      O1464   1.341       .  A
C1463      C1507   1.502       .  S
O1465     Cr1480   1.996       .  S
O1465      C1466   1.269       .  A
C1466      O1467   1.275       .  A
C1466      C1846   1.493       .  S
O1467     Cr1481   2.011       .  S
O1468      C1469   1.254       .  A
C1469      C1776   1.470       .  S
O1470     Cr1479   1.984       .  S
O1471     Cr1479   1.978       .  S
C1472      O1473   1.262       .  A
C1472      C1832   1.477       .  S
O1473     Cr1480   1.964       .  S
O1474     Cr1480   2.095       .  S
O1474      C1475   1.297       .  A
C1475      O1476   1.250       .  A
C1475      C1522   1.457       .  S
O1476     Cr1481   1.883       .  S
O1477     Cr1481   1.997       .  S
O1477      C1478   1.269       .  A
C1478      C1488   1.461       .  S
Cr1479     O1482   1.601       .  S
O1483     Cr1501   2.006       .  S
O1483      C1491   1.264       .  A
O1484      C1485   1.256       .  A
C1485      O1486   1.271       .  A
O1486     Cr1502   2.001       .  S
O1487     Cr1502   2.022       .  S
O1487      C1488   1.267       .  A
O1489     Cr1503   1.963       .  S
O1490     Cr1503   2.050       .  S
O1490      C1491   1.279       .  A
O1492     Cr1501   2.044       .  S
O1492      C1500   1.267       .  A
O1493     Cr1501   1.971       .  S
O1493      C1494   1.264       .  A
C1494      C1759   1.490       .  S
O1495     Cr1502   2.011       .  S
O1496      C1497   1.271       .  A
C1497      O1498   1.260       .  A
O1498     Cr1503   1.996       .  S
O1499     Cr1503   1.994       .  S
O1499      C1500   1.253       .  A
Cr1501     O1504   1.807       .  S
Cr1503     O1504   1.753       .  S
O1505     Cr1523   2.005       .  S
O1505      C1513   1.263       .  A
O1506     Cr1523   2.023       .  S
O1506      C1507   1.259       .  A
C1507      O1508   1.274       .  A
O1508     Cr1524   2.021       .  S
O1509     Cr1524   2.007       .  S
O1509      C1510   1.266       .  A
C1510      O1511   1.255       .  A
O1511     Cr1525   1.942       .  S
O1512     Cr1525   2.037       .  S
O1512      C1513   1.276       .  A
O1514     Cr1523   2.050       .  S
O1514      C1522   1.269       .  A
O1515     Cr1523   1.990       .  S
O1515      C1516   1.268       .  A
C1516      O1517   1.272       .  A
C1516      C1745   1.488       .  S
O1517     Cr1524   2.016       .  S
O1518     Cr1524   2.054       .  S
O1518      C1519   1.280       .  A
C1519      O1520   1.254       .  A
O1520     Cr1525   1.977       .  S
O1521     Cr1525   1.975       .  S
O1521      C1522   1.242       .  A
Cr1523     O1526   1.803       .  S
Cr1524     O1526   1.760       .  S
Cr1525     O1526   1.762       .  S
C1527      C1529   1.554       .  S
C1527      C1531   1.550       .  S
C1527      C1530   1.510       .  S
C1527      C1706   1.499       .  S
C1528      C1532   1.565       .  S
C1528      C1534   1.591       .  S
C1528      C1533   1.548       .  S
C1528      C1717   1.519       .  S
C1529      C1537   1.396       .  A
C1529      C1532   1.374       .  A
C1530      C1541   1.363       .  A
C1530      C1533   1.382       .  A
C1531      C1545   1.390       .  A
C1531      C1534   1.373       .  A
C1532      C1535   1.408       .  A
C1533      C1539   1.387       .  A
C1535      N1536   1.366       .  A
C1535      H1548   1.077       .  S
N1536      C1537   1.363       .  A
N1536      C1631   1.457       .  S
C1537      H1538   1.082       .  S
C1539      N1540   1.364       .  A
N1540      C1541   1.355       .  A
N1540      C1731   1.443       .  S
C1541      H1547   1.083       .  S
C1542      N1543   1.363   1_565  A
C1542      H1544   1.074       .  S
N1543      C1647   1.458   1_545  S
C1545      H1546   1.082       .  S
O1550     Cr1568   2.047       .  S
O1550      C1558   1.289       .  A
O1551     Cr1568   1.940       .  S
O1551      C1552   1.243       .  A
C1552      O1553   1.287       .  A
C1552      C1641   1.527       .  S
O1553     Cr1569   2.127       .  S
O1554     Cr1569   2.009       .  S
O1554      C1555   1.275       .  A
C1555      O1556   1.278       .  A
C1555      C1692   1.513       .  S
O1556     Cr1570   2.032       .  S
O1557     Cr1570   1.886       .  S
O1557      C1558   1.232       .  A
C1558      C1703   1.458       .  S
O1559     Cr1568   1.945       .  S
O1559      C1567   1.239       .  A
O1560     Cr1568   2.039       .  S
O1560      C1561   1.276       .  A
C1561      O1562   1.260       .  A
C1561      C1675   1.491       .  S
O1562     Cr1569   1.946       .  S
O1563     Cr1569   2.103       .  S
O1563      C1564   1.285       .  A
C1564      O1565   1.237       .  A
C1564      C1656   1.453       .  S
O1565     Cr1570   1.890       .  S
O1566     Cr1570   2.061       .  S
O1566      C1567   1.269       .  A
C1567      C1622   1.479       .  S
Cr1568     O1571   1.722       .  S
Cr1569     O1571   1.759       .  S
Cr1570     O1571   1.764       .  S
C1572      C1574   1.563       .  S
C1572      C1576   1.555       .  S
C1572      C1575   1.529       .  S
C1572      C1664   1.536       .  S
C1573      C1577   1.561       .  S
C1573      C1579   1.569       .  S
C1573      C1578   1.559       .  S
C1573      C1678   1.533       .  S
C1574      C1582   1.392       .  A
C1574      C1577   1.383       .  A
C1575      C1586   1.375       .  A
C1575      C1578   1.386       .  A
C1576      C1590   1.389       .  A
C1576      C1579   1.386       .  A
C1577      C1580   1.408       .  A
C1578      C1584   1.398       .  A
C1579      C1587   1.403       .  A
C1580      N1581   1.368       .  A
C1580      H1593   1.081       .  S
N1581      C1582   1.362       .  A
N1581      C1653   1.456       .  S
C1582      H1583   1.083       .  S
C1584      N1585   1.372       .  A
C1584      H1594   1.082       .  S
N1585      C1586   1.358       .  A
C1586      H1592   1.083       .  S
C1587      N1588   1.359       .  A
C1587      H1589   1.078       .  S
N1588      C1590   1.348       .  A
N1588      C1625   1.454       .  S
C1590      H1591   1.076       .  S
O1595     Cr1613   2.021       .  S
O1595      C1603   1.273       .  A
O1596     Cr1613   1.851       .  S
O1596      C1597   1.278       .  A
C1597      O1598   1.343       .  A
C1597      C1619   1.522       .  S
O1599     Cr1614   2.004       .  S
O1599      C1600   1.272       .  A
C1600      O1601   1.270       .  A
C1600      C1734   1.497       .  S
O1601     Cr1615   1.991       .  S
O1602      C1603   1.247   1_545  A
C1603      C1661   1.494       .  S
O1604     Cr1613   1.995       .  S
O1605     Cr1613   2.019       .  S
O1605      C1606   1.272       .  A
O1607     Cr1614   1.947       .  S
O1608     Cr1614   2.091       .  S
O1608      C1609   1.295       .  A
C1609      O1610   1.248       .  A
C1609      C1634   1.446       .  S
O1610     Cr1615   1.863       .  S
O1611     Cr1615   1.980       .  S
O1611      C1612   1.261       .  A
C1612      C1644   1.456       .  S
Cr1613     O1616   1.598   1_565  S
O1617     Cr1635   2.006       .  S
O1617      C1625   1.265       .  A
O1618     Cr1635   2.035       .  S
O1618      C1619   1.265       .  A
C1619      O1620   1.280       .  A
O1620     Cr1636   2.042       .  S
O1621     Cr1636   2.036       .  S
O1621      C1622   1.270       .  A
C1622      O1623   1.269       .  A
O1623     Cr1637   1.970       .  S
O1624     Cr1637   2.017       .  S
O1624      C1625   1.263       .  A
O1626     Cr1635   2.034       .  S
O1626      C1634   1.269       .  A
O1627     Cr1635   1.982       .  S
O1627      C1628   1.262       .  A
C1628      O1629   1.270       .  A
C1628      C1748   1.509       .  S
O1629     Cr1636   2.009       .  S
O1630     Cr1636   2.075       .  S
O1630      C1631   1.281       .  A
C1631      O1632   1.248       .  A
O1632     Cr1637   1.974       .  S
O1633     Cr1637   1.977       .  S
O1633      C1634   1.252       .  A
Cr1635     O1638   1.802       .  S
Cr1636     O1638   1.763       .  S
Cr1637     O1638   1.757       .  S
O1639     Cr1657   2.018   1_545  S
O1639      C1647   1.264   1_545  A
O1640      C1641   1.268       .  A
C1641      O1642   1.286       .  A
O1642     Cr1658   2.060       .  S
O1643     Cr1658   2.043       .  S
O1643      C1644   1.277       .  A
O1645     Cr1659   1.947   1_545  S
O1646     Cr1659   2.010       .  S
O1646      C1647   1.259       .  A
O1648     Cr1657   2.042       .  S
O1648      C1656   1.275       .  A
O1649     Cr1657   1.972       .  S
O1649      C1650   1.256       .  A
C1650      C1762   1.472       .  S
O1651     Cr1658   1.997       .  S
O1652      C1653   1.280       .  A
C1653      O1654   1.246       .  A
O1654     Cr1659   1.973       .  S
O1655     Cr1659   1.940       .  S
O1655      C1656   1.249       .  A
Cr1657     O1660   1.790       .  S
Cr1659     O1660   1.773       .  S
C1661      C1662   1.398       .  A
C1661      C1666   1.389       .  A
C1662      C1663   1.415       .  A
C1662      C1667   1.446   1_565  S
C1663      C1664   1.448       .  A
C1663      C1670   1.449       .  S
C1664      C1665   1.439       .  A
C1665      C1666   1.384       .  A
C1665      C1668   1.434       .  S
C1666      C1669   1.443       .  S
C1667      N1674   1.157       .  T
C1668      N1673   1.157       .  T
C1669      N1671   1.157   1_556  T
C1670      N1672   1.157       .  T
C1675      C1676   1.424       .  A
C1675      C1680   1.417       .  A
C1676      C1677   1.407       .  A
C1676      C1681   1.449       .  S
C1677      C1678   1.400       .  A
C1677      C1684   1.448       .  S
C1678      C1679   1.407       .  A
C1679      C1680   1.407       .  A
C1679      C1682   1.450       .  S
C1680      C1683   1.447       .  S
C1681      N1688   1.157       .  T
C1682      N1687   1.157       .  T
C1683      N1685   1.157       .  T
C1684      N1686   1.157       .  T
C1689      C1690   1.420       .  A
C1689      C1694   1.423       .  A
C1690      C1691   1.425       .  A
C1690      C1695   1.446       .  S
C1691      C1692   1.415       .  A
C1691      C1698   1.446       .  S
C1692      C1693   1.411       .  A
C1693      C1694   1.413       .  A
C1693      C1696   1.454       .  S
C1694      C1697   1.446       .  S
C1696      N1701   1.158       .  T
C1697      N1699   1.156       .  T
C1698      N1700   1.157       .  T
C1703      C1704   1.397       .  A
C1703      C1708   1.384       .  A
C1704      C1705   1.408       .  A
C1704      C1709   1.449       .  S
C1705      C1706   1.433       .  A
C1705      C1712   1.447       .  S
C1706      C1707   1.418       .  A
C1707      C1708   1.372       .  A
C1707      C1710   1.461       .  S
C1708      C1711   1.443       .  S
C1709      N1716   1.157       .  T
C1710      N1715   1.158       .  T
C1711      N1713   1.156       .  T
C1712      N1714   1.156       .  T
C1717      C1718   1.397       .  A
C1718      C1719   1.404       .  A
C1718      C1723   1.449       .  S
C1719      C1720   1.425       .  A
C1719      C1726   1.450       .  S
C1721      C1722   1.406       .  A
C1721      C1724   1.448       .  S
C1722      C1725   1.449       .  S
C1723      N1730   1.157       .  T
C1724      N1729   1.157       .  T
C1725      N1727   1.157       .  T
C1726      N1728   1.157       .  T
C1732      C1733   1.404       .  A
C1732      C1737   1.448   1_556  S
C1733      C1734   1.418       .  A
C1733      C1740   1.453       .  S
C1735      C1736   1.415   1_556  A
C1735      C1738   1.449       .  S
C1738      N1743   1.157       .  T
C1739      N1741   1.157       .  T
C1740      N1742   1.157       .  T
C1745      C1746   1.409       .  A
C1745      C1750   1.409       .  A
C1746      C1747   1.413       .  A
C1746      C1751   1.452       .  S
C1747      C1748   1.421   1_655  A
C1747      C1754   1.452   1_655  S
C1748      C1749   1.426   1_455  A
C1749      C1750   1.418       .  A
C1749      C1752   1.451   1_655  S
C1750      C1753   1.451       .  S
C1751      N1758   1.157       .  T
C1752      N1757   1.158       .  T
C1753      N1755   1.157       .  T
C1754      N1756   1.158       .  T
C1759      C1760   1.420       .  A
C1760      C1761   1.412       .  A
C1760      C1765   1.450       .  S
C1761      C1762   1.409       .  A
C1761      C1768   1.452       .  S
C1763      C1764   1.407       .  A
C1763      C1766   1.453       .  S
C1764      C1767   1.453       .  S
C1765      N1772   1.157       .  T
C1766      N1771   1.157       .  T
C1767      N1769   1.158       .  T
C1768      N1770   1.157       .  T
C1773      C1774   1.396       .  A
C1773      C1778   1.404       .  A
C1774      C1775   1.394       .  A
C1774      C1779   1.445       .  S
C1775      C1776   1.414       .  A
C1775      C1782   1.444       .  S
C1776      C1777   1.416       .  A
C1777      C1778   1.402       .  A
C1777      C1780   1.448       .  S
C1778      C1781   1.447       .  S
C1779      N1786   1.156       .  T
C1780      N1785   1.157   1_565  T
C1781      N1783   1.157       .  T
C1782      N1784   1.156       .  T
C1787      C1788   1.389       .  A
C1787      C1792   1.419       .  A
C1788      C1789   1.370       .  A
C1788      C1793   1.445       .  S
C1789      C1790   1.404       .  A
C1789      C1796   1.458       .  S
C1790      C1791   1.423       .  A
C1791      C1792   1.424       .  A
C1791      C1794   1.447       .  S
C1792      C1795   1.440       .  S
C1793      N1800   1.156       .  T
C1794      N1799   1.157       .  T
C1795      N1797   1.156       .  T
C1796      N1798   1.157       .  T
C1801      C1802   1.422       .  A
C1801      C1806   1.410       .  A
C1802      C1803   1.432       .  A
C1802      C1807   1.446       .  S
C1805      C1806   1.388       .  A
C1805      C1808   1.444   1_556  S
C1806      C1809   1.445       .  S
C1807      N1814   1.157       .  T
C1809      N1811   1.157       .  T
C1810      N1812   1.157       .  T
C1815      C1816   1.412       .  A
C1815      C1820   1.410       .  A
C1816      C1817   1.394       .  A
C1816      C1821   1.451       .  S
C1817      C1818   1.409       .  A
C1817      C1824   1.445       .  S
C1818      C1819   1.404       .  A
C1819      C1820   1.399       .  A
C1819      C1822   1.448       .  S
C1820      C1823   1.448       .  S
C1821      N1828   1.157       .  T
C1822      N1827   1.158       .  T
C1823      N1825   1.157       .  T
C1824      N1826   1.154       .  T
C1829      C1830   1.394       .  A
C1830      C1831   1.401       .  A
C1830      C1835   1.449       .  S
C1831      C1832   1.423       .  A
C1831      C1838   1.448       .  S
C1833      C1834   1.406       .  A
C1833      C1836   1.450   1_565  S
C1834      C1837   1.449   1_565  S
C1835      N1842   1.157       .  T
C1836      N1841   1.157       .  T
C1837      N1839   1.157       .  T
C1838      N1840   1.157       .  T
C1843      C1848   1.414       .  A
C1844      C1845   1.410       .  A
C1844      C1849   1.446       .  S
C1845      C1852   1.442       .  S
C1846      C1847   1.408       .  A
C1847      C1848   1.407       .  A
C1847      C1850   1.451       .  S
C1848      C1851   1.444       .  S
C1850      N1855   1.157       .  T
C1851      N1853   1.156       .  T
C1852      N1854   1.157       .  T
