geometry optimzed in LAMMPS
_audit_creation_date              2020-12-01 
_audit_creation_method            'lammps2cif' 
_symmetry_space_group_name_H-M    'P1' 
_symmetry_Int_Tables_number       1 
_symmetry_cell_setting            triclinic 
loop_ 
_symmetry_equiv_pos_as_xyz 
  x,y,z 
_cell_length_a                    52.46573559 
_cell_length_b                    38.25406466587477 
_cell_length_c                    33.00224692208384 
_cell_angle_alpha                 90.7681803940774 
_cell_angle_beta                  90.1300221897784 
_cell_angle_gamma                 91.51838979009969 
loop_ 
_atom_site_label 
_atom_site_type_symbol 
_atom_site_fract_x 
_atom_site_fract_y 
_atom_site_fract_z 
_atom_site_charge 
O1          O  0.59538815  0.60373874  0.03041946    -0.72500
O2          O  0.60046316  0.53435269  0.12034568    -0.73500
O3          O  0.63443325  0.56932602  0.07044852    -0.62100
O4          O  0.55808240  0.56853755  0.08241234    -0.70500
O5          O  0.55445528  0.52344212  0.03975355    -0.70100
O6          O  0.63114921  0.52526612  0.02602277    -0.61300
O7          O  0.59781637  0.48948306  0.07710012    -0.73800
O8          O  0.59146257  0.55899056  0.98722357    -0.72600
Cu9        Cu  0.59664338  0.57047146  0.07745588     1.04600
Cu10       Cu  0.59302587  0.52282019  0.03096539     1.04300
C11         C  0.59667941  0.59140404  0.99437271     0.93700
C12         C  0.60373428  0.50197373  0.11203036     0.92800
C13         C  0.64474428  0.54706954  0.04696435     0.85000
C14         C  0.54411684  0.54578306  0.06343525     0.91200
O15         O  0.46282500  0.56095929  0.00595011    -0.72500
O16         O  0.46003960  0.49383824  0.09918900    -0.73500
O17         O  0.42542269  0.53123543  0.05316057    -0.62100
O18         O  0.50165828  0.52370121  0.04917262    -0.70500
O19         O  0.50577827  0.56939045  0.09090686    -0.70100
O20         O  0.42912870  0.57614982  0.09644219    -0.61300
O21         O  0.46462129  0.53988658  0.14046392    -0.73800
O22         O  0.46696040  0.60646569  0.04823690    -0.72600
Cu23       Cu  0.46291346  0.52572482  0.05044411     1.04600
Cu24       Cu  0.46730428  0.57433502  0.09560207     1.04300
C25         C  0.46163834  0.59385244  0.01320940     0.93700
C26         C  0.45815691  0.50775888  0.13448116     0.92800
C27         C  0.41542412  0.55510848  0.07469993     0.85000
C28         C  0.51589069  0.54608490  0.06829088     0.91200
C29         C  0.42073371  0.63004150  0.92841288     0.86900
C30         C  0.41278594  0.66159660  0.95510300    -0.53300
C31         C  0.43170381  0.67517616  0.97998715     0.09800
C32         C  0.45679422  0.65531388  0.97606326     0.20800
C33         C  0.44395680  0.64525234  0.90587249    -0.54000
C34         C  0.46301496  0.65770772  0.93068964     0.09900
C35         C  0.43103492  0.60374706  0.95829004    -0.53600
C36         C  0.45026095  0.61636970  0.98245868     0.10500
H37         H  0.39570125  0.67603972  0.94953445     0.15000
H38         H  0.47185644  0.66597122  0.99664357     0.00800
H39         H  0.44522965  0.64616857  0.87307314     0.15300
H40         H  0.42363164  0.57699175  0.95997039     0.15100
C41         C  0.41597880  0.48604693  0.22587615     0.86900
C42         C  0.40308439  0.45397608  0.20484429    -0.53300
C43         C  0.41886947  0.43484274  0.18096355     0.09800
C44         C  0.44636198  0.45040330  0.17898414     0.20800
C45         C  0.43866911  0.46976952  0.24833960    -0.54000
C46         C  0.45452807  0.45181901  0.22362789     0.09900
C47         C  0.42845422  0.50745614  0.19224186    -0.53600
C48         C  0.44449196  0.48929153  0.16766460     0.10500
H49         H  0.38349278  0.44602057  0.21027114     0.15000
H50         H  0.45939337  0.43533606  0.15929029     0.00800
H51         H  0.44164067  0.47054369  0.28086181     0.15300
H52         H  0.42490525  0.53507966  0.18839635     0.15100
N53         N  0.29383365  0.52544795  0.64612733    -0.26900
N54         N  0.27193327  0.52347399  0.66574751    -0.34700
C55         C  0.27615713  0.53018490  0.70531830     0.01500
C56         C  0.30202128  0.53623069  0.71083769     0.07500
C57         C  0.31260082  0.53330006  0.67267089    -0.05600
H58         H  0.26129113  0.53343073  0.72758114     0.08200
H59         H  0.33223557  0.53881870  0.66444191     0.09400
Cu60       Cu  0.23708359  0.51914978  0.63688222     0.44200
Cu61       Cu  0.29674584  0.52453162  0.58372405     0.42000
Cu62       Cu  0.23937054  0.54901783  0.53301631     0.43900
N63         N  0.20523250  0.52835771  0.60234305    -0.34300
N64         N  0.20622464  0.54209459  0.56581058    -0.28500
C65         C  0.18240707  0.54733929  0.55276413    -0.04600
C66         C  0.16574002  0.53597108  0.58235111     0.07600
C67         C  0.18072061  0.52383808  0.61324450     0.01400
H68         H  0.17758874  0.55740426  0.52330849     0.09100
H69         H  0.17434820  0.51312077  0.64177429     0.08100
N70         N  0.27338208  0.54134157  0.50335076    -0.35700
N71         N  0.29418330  0.53096087  0.52182491    -0.27900
C72         C  0.31233827  0.52536975  0.49405226    -0.03100
C73         C  0.30227439  0.53208645  0.45631433     0.05500
C74         C  0.27772587  0.54276823  0.46327646     0.03600
H75         H  0.33132741  0.51667228  0.50075404     0.08700
H76         H  0.26380168  0.54990759  0.44081928     0.07500
C77         C  0.40268649  0.97498333  0.90690801     0.86900
C78         C  0.41701896  0.00175517  0.93394237    -0.53300
C79         C  0.43881031  0.99010989  0.95141096     0.09800
C80         C  0.44402405  0.95135471  0.94080483     0.20800
C81         C  0.42229862  0.96108135  0.87683652    -0.54000
C82         C  0.44371592  0.94907240  0.89408352     0.09900
C83         C  0.39804348  0.94350625  0.93573599    -0.53600
C84         C  0.41963172  0.93068549  0.95292346     0.10500
H85         H  0.40915187  0.02672010  0.94229551     0.15000
H86         H  0.46179104  0.94136368  0.95399545     0.00800
H87         H  0.41884374  0.95903672  0.84438291     0.15300
H88         H  0.38003954  0.92990553  0.94054942     0.15100
C89         C  0.39825947  0.13226989  0.18686463     0.86900
C90         C  0.41037442  0.10840908  0.15491699    -0.53300
C91         C  0.43165027  0.12205329  0.13677233     0.09800
C92         C  0.43762144  0.16012906  0.14962307     0.20800
C93         C  0.41968158  0.14473630  0.21521327    -0.54000
C94         C  0.43992031  0.15919515  0.19617240     0.09900
C95         C  0.39218877  0.16552001  0.16232939    -0.53600
C96         C  0.41276697  0.18053718  0.14252013     0.10500
H97         H  0.40213063  0.08339247  0.14559228     0.15000
H98         H  0.45491662  0.17061693  0.13427881     0.00800
H99         H  0.41913178  0.14164732  0.24791319     0.15300
H100        H  0.37385107  0.17759439  0.16252600     0.15100
N101        N  0.28401624  0.01605867  0.47645888    -0.26900
N102        N  0.26247261  0.02273746  0.45773175    -0.34700
C103        C  0.26771587  0.03557697  0.42103096     0.01500
C104        C  0.29387311  0.03738535  0.41644472     0.07500
C105        C  0.30364790  0.02411971  0.45192066    -0.05600
H106        H  0.25354704  0.04458407  0.39999232     0.08200
H107        H  0.32338803  0.02109379  0.45998716     0.09400
Cu108      Cu  0.22725099  0.01960798  0.48449185     0.44200
Cu109      Cu  0.28563077  0.00296154  0.53679075     0.42000
Cu110      Cu  0.22713966  0.02213582  0.59279858     0.43900
N111        N  0.19482977  0.02734664  0.51769609    -0.34300
N112        N  0.19465299  0.03052716  0.55761639    -0.28500
C113        C  0.17065861  0.03706606  0.56955744    -0.04600
C114        C  0.15522859  0.03766240  0.53537107     0.07600
C115        C  0.17114411  0.03104138  0.50317300     0.01400
H116        H  0.16462414  0.03919669  0.60079923     0.09100
H117        H  0.16587262  0.02863469  0.47151303     0.08100
N118        N  0.26164225  0.00953515  0.62035952    -0.35700
N119        N  0.28344958  0.00183131  0.60037044    -0.27900
C120        C  0.30305679  0.99560058  0.62717719    -0.03100
C121        C  0.29190160  0.99939579  0.66523816     0.05500
C122        C  0.26662034  0.00813076  0.66008175     0.03600
H123        H  0.29652837  0.99725035  0.59650830     0.08700
H124        H  0.25302355  0.01331973  0.68378412     0.07500
O125        O  0.54771758  0.07447247  0.03045855    -0.72500
O126        O  0.62494295  0.06232721  0.03184242    -0.73500
O127        O  0.58465194  0.02919569  0.99180594    -0.62100
O128        O  0.59210950  0.10934597  0.07055657    -0.70500
O129        O  0.58832125  0.07187027  0.12103289    -0.70100
O130        O  0.58169162  0.99039084  0.04104141    -0.61300
O131        O  0.62028270  0.02561552  0.08306175    -0.73800
O132        O  0.54408534  0.03595133  0.07967455    -0.72600
Cu133      Cu  0.58693418  0.07026509  0.02954563     1.04600
Cu134      Cu  0.58278239  0.02990397  0.08308727     1.04300
C135        C  0.53355440  0.05613182  0.05424625     0.93700
C136        C  0.63439622  0.04133629  0.05738501     0.92800
C137        C  0.58654382  0.99781757  0.00410503     0.85000
C138        C  0.59524779  0.10208336  0.10783315     0.91200
O139        O  0.45495040  0.04461017  0.97774088    -0.72500
O140        O  0.45133553  0.11350821  0.07168144    -0.73500
O141        O  0.49389995  0.07937446  0.02923786    -0.62100
O142        O  0.41632182  0.07832871  0.01985154    -0.70500
O143        O  0.41369894  0.03419305  0.06279121    -0.70100
O144        O  0.49113629  0.03514851  0.07168420    -0.61300
O145        O  0.44856552  0.06845558  0.11327546    -0.73800
O146        O  0.45268926  0.99995072  0.01985415    -0.72600
Cu147      Cu  0.45476829  0.08047884  0.02321901     1.04600
Cu148      Cu  0.45198811  0.03294722  0.06837746     1.04300
C149        C  0.45098722  0.01196358  0.98405671     0.93700
C150        C  0.44565044  0.10093414  0.10633281     0.92800
C151        C  0.50488324  0.05718344  0.05178091     0.85000
C152        C  0.40295681  0.05645291  0.04030466     0.91200
C153        C  0.62580872  0.95533126  0.92002078     0.86900
C154        C  0.63759500  0.92827061  0.94822501    -0.53300
C155        C  0.62176940  0.91603137  0.97822642     0.09800
C156        C  0.59492071  0.93176107  0.97631836     0.20800
C157        C  0.60210529  0.93510561  0.90390061    -0.54000
C158        C  0.58586933  0.92195577  0.93291306     0.09900
C159        C  0.61495031  0.98367978  0.94717112    -0.53600
C160        C  0.59840948  0.97206006  0.97613443     0.10500
H161        H  0.65544624  0.91600062  0.94126109     0.15000
H162        H  0.58285433  0.92279164  0.00141590     0.00800
H163        H  0.59890643  0.93049325  0.87177360     0.15300
H164        H  0.61992937  0.01119142  0.94330686     0.15100
C165        C  0.64220359  0.14432303  0.18539063     0.86900
C166        C  0.65442535  0.16825188  0.15322309    -0.53300
C167        C  0.63788088  0.18116656  0.12523418     0.09800
C168        C  0.61037693  0.16722890  0.13160884     0.20800
C169        C  0.62046859  0.16597534  0.20315046    -0.54000
C170        C  0.60467287  0.18011718  0.17521400     0.09900
C171        C  0.62709488  0.11522942  0.16259916    -0.53600
C172        C  0.61036885  0.12689632  0.13440744     0.10500
H173        H  0.67371939  0.17867462  0.15711527     0.15000
H174        H  0.59766191  0.17525433  0.10692479     0.00800
H175        H  0.61660781  0.16761727  0.23519949     0.15300
H176        H  0.62919032  0.08764537  0.16851579     0.15100
N177        N  0.74480427  0.04397401  0.48932544    -0.26900
N178        N  0.76503410  0.03099532  0.47134075    -0.34700
C179        C  0.76272921  0.03512635  0.43099759     0.01500
C180        C  0.74001700  0.05165451  0.42356401     0.07500
C181        C  0.72908545  0.05647763  0.46115014    -0.05600
H182        H  0.77678448  0.02737296  0.40894628     0.08200
H183        H  0.71145043  0.06943807  0.46767830     0.09400
Cu184      Cu  0.79602812  0.01257750  0.50365065     0.44200
Cu185      Cu  0.74017613  0.04687736  0.55142170     0.42000
Cu186      Cu  0.79741310  0.04068592  0.60983131     0.43900
N187        N  0.82776806  0.00984980  0.54146474    -0.34300
N188        N  0.82887845  0.02387840  0.57830264    -0.28500
C189        C  0.85317407  0.02441717  0.59136759    -0.04600
C190        C  0.86801231  0.00961893  0.56154318     0.07600
C191        C  0.85125298  0.99993522  0.53082563     0.01400
H192        H  0.85963279  0.03571852  0.61994192     0.09100
H193        H  0.85603587  0.98826077  0.50200768     0.08100
N194        N  0.76164074  0.04318077  0.63556542    -0.35700
N195        N  0.74049452  0.04496217  0.61394928    -0.27900
C196        C  0.72030407  0.04040538  0.63847642    -0.03100
C197        C  0.72925509  0.03513225  0.67724668     0.05500
C198        C  0.75549913  0.03736768  0.67446264     0.03600
H199        H  0.70067437  0.03880100  0.62836705     0.08700
H200        H  0.76908959  0.03243004  0.69825660     0.07500
C201        C  0.65003752  0.61934196  0.92399855     0.86900
C202        C  0.63053624  0.59531360  0.94460557    -0.53300
C203        C  0.61077423  0.61154815  0.96289901     0.09800
C204        C  0.61198590  0.65175638  0.95752827     0.20800
C205        C  0.63472490  0.64130082  0.89454762    -0.54000
C206        C  0.61446180  0.65743298  0.91116693     0.09900
C207        C  0.65818474  0.64695738  0.95640559    -0.53600
C208        C  0.63834357  0.66433253  0.97393269     0.10500
H209        H  0.63367225  0.56747995  0.94765002     0.15000
H210        H  0.59570404  0.66534208  0.97154875     0.00800
H211        H  0.64062993  0.64532081  0.86352567     0.15300
H212        H  0.67749621  0.65722297  0.95929528     0.15100
C213        C  0.64693962  0.47266487  0.19774059     0.86900
C214        C  0.63127774  0.49684015  0.17207720    -0.53300
C215        C  0.61789409  0.48074289  0.14151665     0.09800
C216        C  0.62184358  0.44076675  0.13907035     0.20800
C217        C  0.62736995  0.44439603  0.21190527    -0.54000
C218        C  0.61434861  0.42727743  0.18123934     0.09900
C219        C  0.66376533  0.45196137  0.16828163    -0.53600
C220        C  0.65073529  0.43446014  0.13787414     0.10500
H221        H  0.63125265  0.52492572  0.17750304     0.15000
H222        H  0.61168653  0.42794139  0.11330566     0.00800
H223        H  0.62386264  0.43841884  0.24328685     0.15300
H224        H  0.68348043  0.44658494  0.17517844     0.15100
N225        N  0.75681764  0.55279953  0.62433642    -0.26900
N226        N  0.77767520  0.53852141  0.63839012    -0.34700
C227        C  0.77560576  0.53444913  0.67859728     0.01500
C228        C  0.75215435  0.54629724  0.69044314     0.07500
C229        C  0.74082394  0.55812190  0.65544022    -0.05600
H230        H  0.79069152  0.52546686  0.69790440     0.08200
H231        H  0.72268922  0.57076964  0.65304776     0.09400
Cu232      Cu  0.80937624  0.52918143  0.60398988     0.44200
Cu233      Cu  0.75209574  0.56672129  0.56412031     0.42000
Cu234      Cu  0.81027580  0.56748937  0.50563740     0.43900
N235        N  0.84091084  0.53038654  0.56730874    -0.34300
N236        N  0.84159151  0.54607134  0.53191533    -0.28500
C237        C  0.86541169  0.54554851  0.51729942    -0.04600
C238        C  0.88025456  0.52844889  0.54483311     0.07600
C239        C  0.86423246  0.51915112  0.57618597     0.01400
H240        H  0.87155260  0.55755885  0.48934307     0.09100
H241        H  0.86940881  0.50712448  0.60442684     0.08100
N242        N  0.77510963  0.57666027  0.48131728    -0.35700
N243        N  0.75363665  0.57585490  0.50218258    -0.27900
C244        C  0.73395492  0.57548992  0.47600069    -0.03100
C245        C  0.74359385  0.57622683  0.43700635     0.05500
C246        C  0.76971584  0.57666841  0.44157388     0.03600
H247        H  0.71424486  0.57096277  0.48447305     0.08700
H248        H  0.78364572  0.57307514  0.41784651     0.07500
O249        O  0.12507152  0.51245313  0.59962335    -0.72500
O250        O  0.04824719  0.50736348  0.58541853    -0.73500
O251        O  0.09245882  0.47580528  0.54624524    -0.62100
O252        O  0.08508150  0.54368746  0.63985044    -0.70500
O253        O  0.08718661  0.58916665  0.59883871    -0.70100
O254        O  0.09473972  0.52122075  0.50510069    -0.61300
O255        O  0.05057056  0.55250972  0.54416273    -0.73800
O256        O  0.12707931  0.55723074  0.55740026    -0.72600
Cu257      Cu  0.08702059  0.50831214  0.59420865     1.04600
Cu258      Cu  0.08935684  0.55654017  0.54987598     1.04300
C259        C  0.13799642  0.53532444  0.57999234     0.93700
C260        C  0.03718481  0.52903806  0.56231484     0.92800
C261        C  0.09885587  0.48901629  0.51229607     0.85000
C262        C  0.08902133  0.57646558  0.63435620     0.91200
O263        O  0.95590445  0.46885359  0.52456118    -0.72500
O264        O  0.95316613  0.53883186  0.61645222    -0.73500
O265        O  0.91848492  0.50403003  0.56726242    -0.62100
O266        O  0.99528640  0.50441189  0.57581762    -0.70500
O267        O  0.99780815  0.54891231  0.53365709    -0.70100
O268        O  0.92101062  0.54743180  0.52316365    -0.61300
O269        O  0.95495906  0.58306179  0.57378184    -0.73800
O270        O  0.95875434  0.51310041  0.48190214    -0.72600
Cu271      Cu  0.95631991  0.50247194  0.57249280     1.04600
Cu272      Cu  0.95896276  0.54955155  0.52656649     1.04300
C273        C  0.95273187  0.48110908  0.48911047     0.93700
C274        C  0.94765353  0.57021855  0.60745071     0.92800
C275        C  0.90784842  0.52616221  0.54460403     0.85000
C276        C  0.00879778  0.52727913  0.55688986     0.91200
C277        C  0.88637996  0.58797427  0.66776482     0.86900
C278        C  0.90806287  0.56753765  0.64760220    -0.53300
C279        C  0.92726775  0.58751209  0.63125494     0.09800
C280        C  0.92236522  0.62706771  0.63500726     0.20800
C281        C  0.90005963  0.61356359  0.69724922    -0.54000
C282        C  0.91904158  0.63341312  0.68063475     0.09900
C283        C  0.87720939  0.61051384  0.63246569    -0.53600
C284        C  0.89548360  0.63283563  0.61660599     0.10500
H285        H  0.90738728  0.53937301  0.64329762     0.15000
H286        H  0.93792413  0.64364049  0.62249045     0.00800
H287        H  0.89744921  0.61227353  0.72988934     0.15300
H288        H  0.85800751  0.60960442  0.62107496     0.15100
C289        C  0.90015777  0.45262484  0.41243542     0.86900
C290        C  0.91752871  0.47729780  0.43875949    -0.53300
C291        C  0.93668322  0.46107603  0.45888584     0.09800
C292        C  0.93672765  0.42122661  0.45085915     0.20800
C293        C  0.91940816  0.43471777  0.38484172    -0.54000
C294        C  0.93842729  0.41800246  0.40422868     0.09900
C295        C  0.89077131  0.42469556  0.44215446    -0.53600
C296        C  0.90956332  0.40704769  0.46119317     0.10500
H297        H  0.91527323  0.50516492  0.44239577     0.15000
H298        H  0.95226780  0.40894309  0.46763974     0.00800
H299        H  0.91855764  0.43675520  0.35208406     0.15300
H300        H  0.87086714  0.41742179  0.44588940     0.15100
N301        N  0.79943366  0.53593673  0.10868166    -0.26900
N302        N  0.78041332  0.55459232  0.12244552    -0.34700
C303        C  0.78393330  0.56119243  0.16221323     0.01500
C304        C  0.80600397  0.54513063  0.17486258     0.07500
C305        C  0.81529972  0.52970666  0.13959432    -0.05600
H306        H  0.77069554  0.57583447  0.18002030     0.08200
H307        H  0.83193964  0.51374114  0.13687902     0.09400
Cu308      Cu  0.74759178  0.56361092  0.08959618     0.44200
Cu309      Cu  0.80242961  0.51823559  0.04897347     0.42000
Cu310      Cu  0.74209518  0.50960220  0.99967595     0.43900
N311        N  0.71341729  0.55261781  0.05986793    -0.34300
N312        N  0.71138837  0.53069492  0.02866583    -0.28500
C313        C  0.68670619  0.52586629  0.01879685    -0.04600
C314        C  0.67252521  0.54591487  0.04491746     0.07600
C315        C  0.68997040  0.56255855  0.07061488     0.01400
H316        H  0.67966552  0.50896677  0.99447642     0.09100
H317        H  0.68588037  0.57947817  0.09618747     0.08100
N318        N  0.77593231  0.50270285  0.96986434    -0.35700
N319        N  0.79847456  0.50655765  0.98745928    -0.27900
C320        C  0.81654786  0.50651163  0.95857107    -0.03100
C321        C  0.80469688  0.50216701  0.92110687     0.05500
C322        C  0.77893679  0.50016650  0.92958149     0.03600
H323        H  0.83663590  0.51168427  0.96412343     0.08700
H324        H  0.76340728  0.50033888  0.90800693     0.07500
C325        C  0.89344040  0.92636196  0.67932214     0.86900
C326        C  0.88037852  0.90563606  0.64420729    -0.53300
C327        C  0.89685899  0.88806403  0.61925472     0.09800
C328        C  0.92542097  0.89704161  0.62956681     0.20800
C329        C  0.91003029  0.89878575  0.69843849    -0.54000
C330        C  0.92786205  0.88398095  0.67383305     0.09900
C331        C  0.91124010  0.95214299  0.65806757    -0.53600
C332        C  0.92829050  0.93770044  0.63217872     0.10500
H333        H  0.86030898  0.89813966  0.64466489     0.15000
H334        H  0.93905064  0.88616094  0.60774120     0.00800
H335        H  0.90673686  0.89154006  0.72954306     0.15300
H336        H  0.90955055  0.98023175  0.66216780     0.15100
C337        C  0.89660542  0.10888971  0.42279444     0.86900
C338        C  0.88554774  0.13559267  0.45283189    -0.53300
C339        C  0.90213144  0.14857183  0.48194111     0.09800
C340        C  0.92854914  0.13155237  0.47875197     0.20800
C341        C  0.92066269  0.12804970  0.40634758    -0.54000
C342        C  0.93705231  0.14127308  0.43556613     0.09900
C343        C  0.90827469  0.07995454  0.44772931    -0.53600
C344        C  0.92482316  0.09137721  0.47712670     0.10500
H345        H  0.86757640  0.14759807  0.44616274     0.15000
H346        H  0.94135653  0.13954854  0.50379350     0.00800
H347        H  0.92469127  0.13176102  0.37451517     0.15300
H348        H  0.90410176  0.05238775  0.44209272     0.15100
N349        N  0.78793579  0.99483327  0.99660672    -0.26900
N350        N  0.76731825  0.00486864  0.97726250    -0.34700
C351        C  0.77123455  0.00295641  0.93713060     0.01500
C352        C  0.79563676  0.99171862  0.93051918     0.07500
C353        C  0.80562791  0.98627202  0.96884513    -0.05600
H354        H  0.75698326  0.00830757  0.91448726     0.08200
H355        H  0.82432183  0.97672819  0.97594557     0.09400
Cu356      Cu  0.73393320  0.01920473  0.00480400     0.44200
Cu357      Cu  0.79037117  0.99320451  0.06000785     0.42000
Cu358      Cu  0.72869057  0.99460737  0.10865443     0.43900
N359        N  0.70106269  0.02491417  0.03784672    -0.34300
N360        N  0.69865392  0.01289325  0.07500376    -0.28500
C361        C  0.67467497  0.01745362  0.08752462    -0.04600
C362        C  0.66158731  0.03397715  0.05724584     0.07600
C363        C  0.67879749  0.03822463  0.02599477     0.01400
H364        H  0.66725739  0.00901595  0.11640718     0.09100
H365        H  0.67516863  0.04879912  0.99635101     0.08100
N366        N  0.76274376  0.99502831  0.14037618    -0.35700
N367        N  0.78541848  0.99626426  0.12298414    -0.27900
C368        C  0.80312844  0.00375142  0.15169757    -0.03100
C369        C  0.79097221  0.00793513  0.18873928     0.05500
C370        C  0.76540950  0.00137488  0.18035095     0.03600
H371        H  0.82318624  0.00835952  0.14564446     0.08700
H372        H  0.74961619  0.00276575  0.20112793     0.07500
O373        O  0.11524281  0.05959588  0.55637716    -0.72500
O374        O  0.03787521  0.04945524  0.56290816    -0.73500
O375        O  0.08205093  0.02162665  0.60370082    -0.62100
O376        O  0.07453901  0.09013538  0.51337083    -0.70500
O377        O  0.07555350  0.04608798  0.46900936    -0.70100
O378        O  0.08177170  0.97709449  0.55979838    -0.61300
O379        O  0.03818633  0.00601686  0.51793954    -0.73800
O380        O  0.11531539  0.01579533  0.51148076    -0.72600
Cu381      Cu  0.07686821  0.05677842  0.56046761     1.04600
Cu382      Cu  0.07719860  0.00981459  0.51289716     1.04300
C383        C  0.12730632  0.03809868  0.53405446     0.93700
C384        C  0.02578086  0.02554561  0.54236953     0.92800
C385        C  0.08629432  0.98962339  0.59527782     0.85000
C386        C  0.07733502  0.07891893  0.47703028     0.91200
O387        O  0.94211169  0.07376445  0.54096187    -0.72500
O388        O  0.94835009  0.99300906  0.61779486    -0.73500
O389        O  0.98559357  0.03811451  0.57420032    -0.62100
O390        O  0.90874373  0.02972480  0.58423730    -0.70500
O391        O  0.90713303  0.99213720  0.53235863    -0.70100
O392        O  0.98464574  0.99891153  0.52425680    -0.61300
O393        O  0.94605293  0.95412664  0.56742498    -0.73800
O394        O  0.94117899  0.03502668  0.49030156    -0.72600
Cu395      Cu  0.94681931  0.03483190  0.58107708     1.04600
Cu396      Cu  0.94533429  0.99373036  0.52677813     1.04300
C397        C  0.93748958  0.06601599  0.50384568     0.93700
C398        C  0.94321078  0.96178372  0.60494928     0.92800
C399        C  0.99737474  0.02053962  0.54711537     0.85000
C400        C  0.89593376  0.01015398  0.55955611     0.91200
C401        C  0.13210011  0.60985600  0.72130990     0.86900
C402        C  0.14153873  0.64100257  0.69578124    -0.53300
C403        C  0.12300367  0.65627790  0.67349074     0.09800
C404        C  0.09667460  0.63717321  0.67682047     0.20800
C405        C  0.11015521  0.62614995  0.74560016    -0.54000
C406        C  0.09096200  0.63943406  0.72292468     0.09900
C407        C  0.11899523  0.58403083  0.69178642    -0.53600
C408        C  0.10062367  0.59791336  0.66805009     0.10500
H409        H  0.16078523  0.65173133  0.69759103     0.15000
H410        H  0.08204339  0.64789140  0.65650457     0.00800
H411        H  0.11163507  0.63032447  0.77772979     0.15300
H412        H  0.12467125  0.55700008  0.68881859     0.15100
C413        C  0.15204114  0.46311433  0.43913517     0.86900
C414        C  0.15884476  0.43146630  0.46572202    -0.53300
C415        C  0.13812153  0.41307525  0.48034173     0.09800
C416        C  0.11258439  0.43060719  0.47105511     0.20800
C417        C  0.13291431  0.44733093  0.40810787    -0.54000
C418        C  0.11221811  0.43125199  0.42470902     0.09900
C419        C  0.13647268  0.48580262  0.46788973    -0.53600
C420        C  0.11547407  0.46948039  0.48396191     0.10500
H421        H  0.17783444  0.42266041  0.47087205     0.15000
H422        H  0.09555424  0.41712818  0.48415540     0.00800
H423        H  0.13447271  0.45139971  0.37566169     0.15300
H424        H  0.14212569  0.51233375  0.47637270     0.15100
N425        N  0.26088233  0.55017577  0.14003291    -0.26900
N426        N  0.28282047  0.55881997  0.15770396    -0.34700
C427        C  0.28055117  0.55523572  0.19792824     0.01500
C428        C  0.25584606  0.54439574  0.20614329     0.07500
C429        C  0.24394656  0.54099155  0.16875840    -0.05600
H430        H  0.29619762  0.55815654  0.21919010     0.08200
H431        H  0.22467284  0.53149405  0.16282931     0.09400
Cu432      Cu  0.31590950  0.56991660  0.12681417     0.44200
Cu433      Cu  0.25600208  0.54832700  0.07761105     0.42000
Cu434      Cu  0.31479314  0.54362102  0.02148596     0.43900
N435        N  0.34811280  0.56537410  0.09221285    -0.34300
N436        N  0.34775234  0.55324788  0.05452128    -0.28500
C437        C  0.37178712  0.54848799  0.04229953    -0.04600
C438        C  0.38787469  0.55835641  0.07378742     0.07600
C439        C  0.37237963  0.56918463  0.10489066     0.01400
H440        H  0.37711072  0.53825103  0.01287590     0.09100
H441        H  0.37816479  0.57719195  0.13518434     0.08100
N442        N  0.27936214  0.54510698  0.99434098    -0.35700
N443        N  0.25787069  0.54800322  0.01480082    -0.27900
C444        C  0.23868200  0.55252403  0.98847916    -0.03100
C445        C  0.24869600  0.55279457  0.94975751     0.05500
C446        C  0.27441826  0.54741801  0.95450269     0.03600
H447        H  0.21901257  0.55605907  0.99699529     0.08700
H448        H  0.28863434  0.54653861  0.93093921     0.07500
C449        C  0.12847248  0.95637441  0.68162843     0.86900
C450        C  0.11838224  0.98209507  0.64990685    -0.53300
C451        C  0.09916806  0.96836419  0.62585272     0.09800
C452        C  0.09203502  0.93021529  0.63508012     0.20800
C453        C  0.10416728  0.94567281  0.70433769    -0.54000
C454        C  0.08570358  0.93121874  0.68038855     0.09900
C455        C  0.13598579  0.92392428  0.65659604    -0.53600
C456        C  0.11694008  0.90954776  0.63256449     0.10500
H457        H  0.12465568  0.00919158  0.64737807     0.15000
H458        H  0.07625059  0.91957300  0.61571919     0.00800
H459        H  0.10192005  0.94801174  0.73694822     0.15300
H460        H  0.15406669  0.91139242  0.66114504     0.15100
C461        C  0.12007952  0.12381928  0.39762413     0.86900
C462        C  0.10749386  0.09355653  0.42181275    -0.53300
C463        C  0.08731260  0.10312775  0.44547800     0.09800
C464        C  0.08122243  0.14230386  0.44200858     0.20800
C465        C  0.09777187  0.13758382  0.37327879    -0.54000
C466        C  0.07797206  0.14814798  0.39602405     0.09900
C467        C  0.12652430  0.15198523  0.43006661    -0.53600
C468        C  0.10629041  0.16229167  0.45307992     0.10500
H469        H  0.11411097  0.06699664  0.42195185     0.15000
H470        H  0.06467678  0.15026744  0.46044942     0.00800
H471        H  0.09794628  0.14025923  0.34056614     0.15300
H472        H  0.14524340  0.16465949  0.43218740     0.15100
N473        N  0.24583442  0.07103173  0.97341324    -0.26900
N474        N  0.26780580  0.07207446  0.95388295    -0.34700
C475        C  0.26329885  0.06596024  0.91423940     0.01500
C476        C  0.23733659  0.05988086  0.90879398     0.07500
C477        C  0.22686847  0.06390944  0.94688913    -0.05600
H478        H  0.27801471  0.06461378  0.89152542     0.08200
H479        H  0.20712699  0.05940822  0.95519621     0.09400
Cu480      Cu  0.30318526  0.07430104  0.98278803     0.44200
Cu481      Cu  0.24262782  0.07373640  0.03567795     0.42000
Cu482      Cu  0.30076354  0.05690031  0.09027221     0.43900
N483        N  0.33541402  0.06590201  0.01803013    -0.34300
N484        N  0.33434455  0.05748965  0.05676393    -0.28500
C485        C  0.35812127  0.05189066  0.07025332    -0.04600
C486        C  0.37495991  0.05747598  0.03864227     0.07600
C487        C  0.35995602  0.06649269  0.00607023     0.01400
H488        H  0.36288354  0.04550331  0.10115939     0.09100
H489        H  0.36637831  0.07270714  0.97581046     0.08100
N490        N  0.26565807  0.06421508  0.11793793    -0.35700
N491        N  0.24457816  0.07133506  0.09803215    -0.27900
C492        C  0.22562736  0.07625253  0.12471665    -0.03100
C493        C  0.23531361  0.07244794  0.16335954     0.05500
C494        C  0.26061135  0.06423711  0.15783728     0.03600
H495        H  0.20631411  0.08259306  0.11661116     0.08700
H496        H  0.27431560  0.05818190  0.18089765     0.07500
C497        C  0.21577161  0.10064629  0.26949736    -0.11500
C498        C  0.19243666  0.08240409  0.27362282     0.11100
C499        C  0.18280169  0.06154061  0.24099287    -0.03300
C500        C  0.19797855  0.05767148  0.20616610    -0.06000
C501        C  0.22130903  0.07613854  0.20199361    -0.16800
C502        C  0.22969842  0.09949093  0.23326931     0.02100
C503        C  0.17634542  0.09231789  0.30852428     0.12100
C504        C  0.15611985  0.04516094  0.24213331     0.62700
H505        H  0.19133936  0.04107860  0.18125533     0.12100
C506        C  0.25142408  0.12589315  0.22700675     0.54800
H507        H  0.22202181  0.11790577  0.29407034     0.07900
C508        C  0.17205706  0.07158019  0.34313251    -0.05900
C509        C  0.15508080  0.08357834  0.37288490    -0.06600
C510        C  0.14274806  0.11586333  0.36977098    -0.16200
C511        C  0.15087213  0.13888994  0.33803393    -0.01800
C512        C  0.16631419  0.12569716  0.30723221    -0.09300
C513        C  0.18484645  0.03711831  0.35074746     0.64900
H514        H  0.15192561  0.06729396  0.39892818     0.10400
C515        C  0.14419867  0.17722319  0.33301728     0.63300
H516        H  0.17100714  0.14212738  0.28157606     0.07700
F517        F  0.27435132  0.10926549  0.22475518    -0.19700
F518        F  0.25309205  0.15022520  0.25841475    -0.16000
F519        F  0.24748651  0.14387377  0.19153476    -0.19400
F520        F  0.13844452  0.07094959  0.24793734    -0.22800
F521        F  0.15421472  0.02166971  0.27343490    -0.24300
F522        F  0.15001317  0.02746356  0.20640311    -0.18300
F523        F  0.16647851  0.19680726  0.32762124    -0.20800
F524        F  0.13172448  0.19194287  0.36536423    -0.21900
F525        F  0.12919102  0.18040309  0.29880238    -0.19100
F526        F  0.19885835  0.03993607  0.38625167    -0.19200
F527        F  0.20110540  0.02736805  0.31996733    -0.23000
F528        F  0.16638418  0.01095077  0.35515608    -0.24600
C529        C  0.21728205  0.00382956  0.81741125    -0.11500
C530        C  0.19504348  0.02025108  0.80533578     0.11100
C531        C  0.18593973  0.04868642  0.82856236    -0.03300
C532        C  0.20109131  0.06211325  0.86077399    -0.06000
C533        C  0.22372266  0.04608782  0.87232171    -0.16800
C534        C  0.23103050  0.01506375  0.85194390     0.02100
C535        C  0.18024586  0.00380865  0.77143319     0.12100
C536        C  0.15972029  0.06315803  0.82099316     0.62700
H537        H  0.19491510  0.08452791  0.87819667     0.20900
C538        C  0.25157401  0.99193922  0.86841379     0.54800
H539        H  0.22315220  0.98099546  0.80041709     0.07900
C540        C  0.17948645  0.01733469  0.73176060    -0.05900
C541        C  0.16339041  0.00061451  0.70289891    -0.06600
C542        C  0.14937661  0.96953953  0.71135158    -0.16200
C543        C  0.15434001  0.95284927  0.74916621    -0.01800
C544        C  0.16824837  0.97154992  0.77903861    -0.09300
C545        C  0.19557340  0.04842535  0.71767806     0.64900
H546        H  0.16258996  0.01176334  0.67305543     0.10400
C547        C  0.14605420  0.91585632  0.76118628     0.63300
H548        H  0.17045516  0.96021651  0.80878462     0.07700
F549        F  0.27527285  0.00722265  0.86213228    -0.19700
F550        F  0.25096070  0.95934697  0.84965253    -0.16000
F551        F  0.24798827  0.98681376  0.90944628    -0.19400
F552        F  0.14144640  0.03666279  0.82473922    -0.22800
F553        F  0.15841449  0.07667473  0.78251040    -0.24300
F554        F  0.15401636  0.08948789  0.84844513    -0.18300
F555        F  0.16720995  0.89835293  0.77440605    -0.20800
F556        F  0.13523632  0.89578827  0.73045456    -0.21900
F557        F  0.12883227  0.91763467  0.79278858    -0.19100
F558        F  0.20971047  0.03835934  0.68443099    -0.19200
F559        F  0.21232132  0.06142503  0.74690850    -0.23000
F560        F  0.17983279  0.07495496  0.70613241    -0.24600
C561        C  0.14139446  0.31363056  0.47212496    -0.11500
C562        C  0.12438087  0.30359744  0.50272240     0.11100
C563        C  0.11647865  0.32917115  0.53120790    -0.03300
C564        C  0.12289381  0.36461140  0.52417481    -0.06000
C565        C  0.13841594  0.37513262  0.49158853    -0.16800
C566        C  0.14941107  0.34866516  0.46660909     0.02100
C567        C  0.11570295  0.26608385  0.50203297     0.12100
C568        C  0.10196556  0.32083030  0.56971835     0.62700
H569        H  0.11528133  0.38450331  0.54413709     0.12100
C570        C  0.16938418  0.35610540  0.43408375     0.54800
H571        H  0.14816774  0.29332419  0.45198580     0.07900
C572        C  0.09214301  0.25503878  0.48431471    -0.05900
C573        C  0.08838751  0.21945914  0.47357793    -0.06600
C574        C  0.10759956  0.19500370  0.47876192    -0.16200
C575        C  0.12937993  0.20516939  0.50211157    -0.01800
C576        C  0.13347517  0.24078986  0.51210219    -0.09300
C577        C  0.07169878  0.28090553  0.47422606     0.64900
H578        H  0.07107511  0.21118141  0.45812879     0.10400
C579        C  0.14857879  0.17956392  0.51753898     0.63300
H580        H  0.15115595  0.24914726  0.52679520     0.07700
F581        F  0.17510987  0.32636337  0.41189520    -0.19700
F582        F  0.19177983  0.36808415  0.45219034    -0.16000
F583        F  0.16101757  0.38038186  0.40690607    -0.19400
F584        F  0.11639441  0.33220650  0.60268573    -0.22800
F585        F  0.09672740  0.28548384  0.57408347    -0.24300
F586        F  0.07922043  0.33832641  0.57009759    -0.18300
F587        F  0.17143793  0.18446495  0.49736865    -0.20800
F588        F  0.14028174  0.14513213  0.51272657    -0.21900
F589        F  0.15263445  0.18555677  0.55852444    -0.19100
F590        F  0.05042048  0.26444397  0.45718115    -0.19200
F591        F  0.08112649  0.30536447  0.44728197    -0.23000
F592        F  0.06383076  0.29780497  0.50893119    -0.24600
C593        C  0.18494501  0.51789346  0.35729862    -0.11500
C594        C  0.20865107  0.50223708  0.35520785     0.11100
C595        C  0.21639471  0.48046693  0.38692777    -0.03300
C596        C  0.19843665  0.47108803  0.41666517    -0.06000
C597        C  0.17321557  0.48322194  0.41617140    -0.16800
C598        C  0.16735176  0.51028873  0.38810613     0.02100
C599        C  0.22412513  0.51031196  0.31894981     0.12100
C600        C  0.24303014  0.46630759  0.39110702     0.62700
H601        H  0.20453723  0.45331227  0.43950980     0.12100
C602        C  0.14362445  0.53279675  0.39049039     0.54800
H603        H  0.18035041  0.53634734  0.33394049     0.07900
C604        C  0.22441157  0.48736410  0.28490030    -0.05900
C605        C  0.23554519  0.49936531  0.24882827    -0.06600
C606        C  0.24550031  0.53358152  0.24564066    -0.16200
C607        C  0.24453449  0.55684112  0.27930311    -0.01800
C608        C  0.23430547  0.54442982  0.31583635    -0.09300
C609        C  0.21243560  0.45078273  0.28623893     0.64900
H610        H  0.23630715  0.48221012  0.22250158     0.10400
C611        C  0.25245427  0.59517083  0.27588538     0.63300
H612        H  0.23298887  0.56179483  0.34190914     0.07700
F613        F  0.14188112  0.55483014  0.35768605    -0.19700
F614        F  0.14507543  0.55379693  0.42481029    -0.16000
F615        F  0.12124986  0.51309609  0.39113341    -0.19400
F616        F  0.25947201  0.47737078  0.36093534    -0.22800
F617        F  0.24170370  0.43014205  0.39042717    -0.24300
F618        F  0.25319394  0.47726709  0.42791974    -0.18300
F619        F  0.24622532  0.61416244  0.31029988    -0.20800
F620        F  0.24018238  0.60971660  0.24327137    -0.21900
F621        F  0.27846438  0.59843568  0.27050282    -0.19100
F622        F  0.21266283  0.43431508  0.24862701    -0.19200
F623        F  0.18735188  0.45224983  0.29879855    -0.23000
F624        F  0.22584040  0.43061233  0.31281392    -0.24600
C625        C  0.12957764  0.75611390  0.66723769    -0.11500
C626        C  0.12423112  0.76138276  0.62630268     0.11100
C627        C  0.12187499  0.73216348  0.59970305    -0.03300
C628        C  0.12193176  0.69820026  0.61624643    -0.06000
C629        C  0.12591124  0.69282040  0.65787484    -0.16800
C630        C  0.13077077  0.72252801  0.68379887     0.02100
C631        C  0.12017376  0.79825579  0.61421540     0.12100
C632        C  0.12015802  0.73689662  0.55422521     0.62700
H633        H  0.11883580  0.67548129  0.59673985     0.12100
C634        C  0.13653095  0.71992636  0.72896151     0.54800
H635        H  0.13214703  0.77910689  0.68648544     0.07900
C636        C  0.09660111  0.81421794  0.62189952    -0.05900
C637        C  0.09578548  0.85094723  0.62300504    -0.06600
C638        C  0.11766227  0.87233876  0.61708910    -0.16200
C639        C  0.14018976  0.85619627  0.60311356    -0.01800
C640        C  0.14137645  0.81936664  0.60364102    -0.09300
C641        C  0.07261500  0.79262393  0.63125380     0.64900
H642        H  0.07821310  0.86290355  0.63166939     0.10400
C643        C  0.16311208  0.87627583  0.58654623     0.63300
H644        H  0.15926403  0.80702643  0.59685155     0.07700
F645        F  0.13829192  0.75247609  0.74779154    -0.19700
F646        F  0.15956232  0.70412795  0.73487064    -0.16000
F647        F  0.11742813  0.70125009  0.74816880    -0.19400
F648        F  0.14088589  0.75677260  0.54124086    -0.22800
F649        F  0.09812806  0.75370111  0.54414876    -0.24300
F650        F  0.12020418  0.70514377  0.53360850    -0.18300
F651        F  0.18365592  0.87302250  0.61242594    -0.20800
F652        F  0.15852869  0.91135312  0.58126569    -0.21900
F653        F  0.16938066  0.86240443  0.54904128    -0.19100
F654        F  0.05182851  0.81348075  0.63761615    -0.19200
F655        F  0.07617650  0.77303978  0.66556405    -0.23000
F656        F  0.06672877  0.77033523  0.59921754    -0.24600
C657        C  0.21055848  0.59559610  0.86715979    -0.11500
C658        C  0.20648576  0.56731129  0.84030453     0.11100
C659        C  0.21808006  0.53502565  0.84767086    -0.03300
C660        C  0.23249899  0.53160504  0.88333998    -0.06000
C661        C  0.23512216  0.55923220  0.91153715    -0.16800
C662        C  0.22479732  0.59215332  0.90289977     0.02100
C663        C  0.18741186  0.57143187  0.80774593     0.12100
C664        C  0.21429201  0.50415120  0.81877068     0.62700
H665        H  0.24110945  0.50694655  0.89022474     0.12100
C666        C  0.22884146  0.62348905  0.93114834     0.54800
H667        H  0.20153520  0.62004849  0.86063675     0.07900
C668        C  0.16100160  0.56885105  0.81577200    -0.05900
C669        C  0.14396111  0.57907600  0.78575140    -0.06600
C670        C  0.15214161  0.59236517  0.74809032    -0.16200
C671        C  0.17845393  0.58895649  0.73800690    -0.01800
C672        C  0.19574936  0.58067035  0.76896736    -0.09300
C673        C  0.14987042  0.55828712  0.85649086     0.64900
H674        H  0.12382202  0.57707057  0.79248995     0.10400
C675        C  0.18951569  0.59193997  0.69566964     0.63300
H676        H  0.21603834  0.58103498  0.76268566     0.07700
F677        F  0.21623644  0.61779611  0.96726306    -0.19700
F678        F  0.21968866  0.65378228  0.91458974    -0.16000
F679        F  0.25460158  0.62880217  0.93877577    -0.19400
F680        F  0.22416696  0.51253858  0.78125224    -0.22800
F681        F  0.18858431  0.49590878  0.81466408    -0.24300
F682        F  0.22635534  0.47475979  0.83239151    -0.18300
F683        F  0.20367487  0.62280171  0.69276695    -0.20800
F684        F  0.17117491  0.59050811  0.66562540    -0.21900
F685        F  0.20550968  0.56432953  0.68854688    -0.19100
F686        F  0.12847693  0.53685880  0.85059072    -0.19200
F687        F  0.14283913  0.58804183  0.87742847    -0.23000
F688        F  0.16667005  0.54020442  0.88014697    -0.24600
C689        C  0.99902524  0.19550559  0.42637062    -0.11500
C690        C  0.99428263  0.21092779  0.38871251     0.11100
C691        C  0.96900398  0.21254113  0.37500011    -0.03300
C692        C  0.95028711  0.19241801  0.39466106    -0.06000
C693        C  0.95667209  0.16872553  0.42533438    -0.16800
C694        C  0.98143978  0.17132576  0.44288022     0.02100
C695        C  0.01510859  0.20637789  0.35920191     0.12100
C696        C  0.96168577  0.23228507  0.33756667     0.62700
H697        H  0.93089176  0.19297994  0.38333621     0.12100
C698        C  0.99079488  0.14687695  0.47537534     0.54800
H699        H  0.01837549  0.19668655  0.43791779     0.07900
C700        C  0.03835491  0.22429713  0.36705146    -0.05900
C701        C  0.05949237  0.20446945  0.37740036    -0.06600
C702        C  0.05734841  0.16778077  0.37753441    -0.16200
C703        C  0.03635336  0.15083356  0.35799261    -0.01800
C704        C  0.01601291  0.17141497  0.34574938    -0.09300
C705        C  0.03993255  0.26372922  0.36508130     0.64900
H706        H  0.07721707  0.21728450  0.38683417     0.10400
C707        C  0.03463890  0.11138346  0.35311004     0.63300
H708        H  0.99843224  0.15865837  0.33548059     0.07700
F709        F  0.98292135  0.15834184  0.51306627    -0.19700
F710        F  0.01713444  0.14594154  0.47621896    -0.16000
F711        F  0.98195960  0.11302229  0.46807507    -0.19400
F712        F  0.95369945  0.20877083  0.30766411    -0.22800
F713        F  0.98182166  0.25241019  0.32291704    -0.24300
F714        F  0.94193500  0.25426505  0.34675078    -0.18300
F715        F  0.03485403  0.09613427  0.39086028    -0.20800
F716        F  0.05514195  0.09988505  0.33085097    -0.21900
F717        F  0.01252506  0.10043390  0.33318884    -0.19100
F718        F  0.06423996  0.27654440  0.37396781    -0.19200
F719        F  0.02296810  0.27828949  0.39200850    -0.23000
F720        F  0.03376909  0.27394881  0.32633414    -0.24600
C721        C  0.80815176  0.06472779  0.28166082    -0.11500
C722        C  0.83065909  0.04932811  0.29426212     0.11100
C723        C  0.83895261  0.01867051  0.27439892    -0.03300
C724        C  0.82495910  0.00546517  0.24078096    -0.06000
C725        C  0.80286982  0.02162572  0.22700271    -0.16800
C726        C  0.79420778  0.05186012  0.24792108     0.02100
C727        C  0.84578466  0.06693570  0.32719726     0.12100
C728        C  0.86262551  0.00032481  0.28853884     0.62700
H729        H  0.83132447  0.98247805  0.22461859     0.12100
C730        C  0.77096277  0.07151903  0.23447130     0.54800
H731        H  0.80196223  0.08769803  0.29802261     0.07900
C732        C  0.86204990  0.09611397  0.31976396    -0.05900
C733        C  0.87704937  0.11009578  0.35178752    -0.06600
C734        C  0.87663274  0.09577397  0.39108356    -0.16200
C735        C  0.85714177  0.06987256  0.39928505    -0.01800
C736        C  0.84306731  0.05493482  0.36672825    -0.09300
C737        C  0.86355181  0.11236917  0.27803029     0.64900
H738        H  0.88868794  0.13306140  0.34595096     0.10400
C739        C  0.85050456  0.05540628  0.44065976     0.63300
H740        H  0.82945326  0.03369879  0.37225555     0.07700
F741        F  0.76964231  0.10390596  0.25346388    -0.19700
F742        F  0.74920039  0.05248186  0.24425610    -0.16000
F743        F  0.77169647  0.07710828  0.19317069    -0.19400
F744        F  0.85911604  0.98881710  0.32771965    -0.22800
F745        F  0.88348863  0.02315212  0.28764098    -0.24300
F746        F  0.86791540  0.97163465  0.26427697    -0.18300
F747        F  0.86024750  0.02235821  0.44306866    -0.20800
F748        F  0.82428120  0.05284706  0.44485645    -0.21900
F749        F  0.85948049  0.07564993  0.47274429    -0.19100
F750        F  0.88161542  0.13935137  0.27652569    -0.19200
F751        F  0.84021259  0.12581035  0.26795461    -0.23000
F752        F  0.86999206  0.08738115  0.24945421    -0.24600
C753        C  0.99142627  0.84063985  0.68286796    -0.11500
C754        C  0.99772946  0.85332382  0.72164143     0.11100
C755        C  0.97811380  0.86111741  0.74879401    -0.03300
C756        C  0.95362627  0.86481029  0.73324469    -0.06000
C757        C  0.94850571  0.86157951  0.69111300    -0.16800
C758        C  0.96675399  0.84362538  0.66729399     0.02100
C759        C  0.02152028  0.87409003  0.72349518     0.12100
C760        C  0.98296426  0.87103819  0.79275432     0.62700
H761        H  0.93984068  0.87442614  0.75441532     0.12100
C762        C  0.96173928  0.82641323  0.62652472     0.54800
H763        H  0.00648875  0.83247728  0.66269731     0.07900
C764        C  0.04562768  0.85876055  0.72400068    -0.05900
C765        C  0.06661990  0.87905267  0.71120012    -0.06600
C766        C  0.06358513  0.91334853  0.69782397    -0.16200
C767        C  0.04003692  0.92977370  0.70148362    -0.01800
C768        C  0.01918134  0.90970319  0.71464907    -0.09300
C769        C  0.04897234  0.82153237  0.73798793     0.64900
H770        H  0.08538271  0.86792606  0.70993211     0.10400
C771        C  0.03688177  0.96777826  0.69034446     0.63300
H772        H  0.00039748  0.92084211  0.71478106     0.07700
F773        F  0.97128364  0.79300646  0.62635363    -0.19700
F774        F  0.97379547  0.84539396  0.59639697    -0.16000
F775        F  0.93617513  0.82302818  0.61838078    -0.19400
F776        F  0.97771577  0.90595736  0.79888642    -0.22800
F777        F  0.00788446  0.86569061  0.80424573    -0.24300
F778        F  0.96713543  0.85095836  0.81714043    -0.18300
F779        F  0.01244576  0.97890804  0.69808922    -0.20800
F780        F  0.04169244  0.97204037  0.64956241    -0.21900
F781        F  0.05376515  0.98872447  0.71267077    -0.19100
F782        F  0.07426403  0.81215136  0.73663974    -0.19200
F783        F  0.03493409  0.79835036  0.71386653    -0.23000
F784        F  0.04069985  0.81848254  0.77750533    -0.24600
C785        C  0.87155846  0.96346029  0.78243173    -0.11500
C786        C  0.84517181  0.96067181  0.77864215     0.11100
C787        C  0.83418094  0.95349583  0.74024477    -0.03300
C788        C  0.85036413  0.94485935  0.70768026    -0.06000
C789        C  0.87714697  0.94377990  0.71232393    -0.16800
C790        C  0.88795001  0.95639312  0.75009242     0.02100
C791        C  0.83010244  0.96708414  0.81586186     0.12100
C792        C  0.80557576  0.95518788  0.73389956     0.62700
H793        H  0.84189478  0.93894521  0.67852940     0.12100
C794        C  0.91618702  0.96190366  0.76062807     0.54800
H795        H  0.87955450  0.97103005  0.81173375     0.07900
C796        C  0.82635960  0.94089301  0.84540971    -0.05900
C797        C  0.81480009  0.94997440  0.88239177    -0.06600
C798        C  0.80749926  0.98430681  0.89079456    -0.16200
C799        C  0.81187025  0.01067922  0.86162072    -0.01800
C800        C  0.82298783  0.00142994  0.82437671    -0.09300
C801        C  0.83520261  0.90380321  0.83832060     0.64900
H802        H  0.81160600  0.93037753  0.90534971     0.10400
C803        C  0.80611122  0.04871750  0.87047099     0.63300
H804        H  0.82695234  0.02119273  0.80188455     0.07700
F805        F  0.92273981  0.93832174  0.79006320    -0.19700
F806        F  0.91999270  0.99539896  0.77627717    -0.16000
F807        F  0.93285618  0.95839212  0.72886797    -0.19400
F808        F  0.79767169  0.98862486  0.74266611    -0.22800
F809        F  0.79302520  0.93192482  0.75912557    -0.24300
F810        F  0.79860407  0.94705422  0.69432784    -0.18300
F811        F  0.81538657  0.07055419  0.84047420    -0.20800
F812        F  0.81737432  0.05922810  0.90672829    -0.21900
F813        F  0.78008858  0.05282403  0.87290804    -0.19100
F814        F  0.82829067  0.88201054  0.86983936    -0.19200
F815        F  0.86146208  0.90384989  0.83497433    -0.23000
F816        F  0.82449837  0.89007636  0.80306781    -0.24600
C817        C  0.00269581  0.38057867  0.38773291    -0.11500
C818        C  0.01291092  0.40639999  0.36242687     0.11100
C819        C  0.99652918  0.42631909  0.33875389    -0.03300
C820        C  0.97101585  0.42763236  0.35051638    -0.06000
C821        C  0.96156793  0.40672269  0.38234538    -0.16800
C822        C  0.97663346  0.37919434  0.39622630     0.02100
C823        C  0.03942347  0.41733662  0.37020021     0.12100
C824        C  0.00522241  0.44622634  0.30163803     0.62700
H825        H  0.95926296  0.44691489  0.33651241     0.12100
C826        C  0.96538510  0.34709510  0.41631991     0.54800
H827        H  0.01533617  0.36303133  0.40303392     0.07900
C828        C  0.04508822  0.44658201  0.39593816    -0.05900
C829        C  0.06993403  0.45112563  0.41021554    -0.06600
C830        C  0.08843255  0.42655492  0.40197529    -0.16200
C831        C  0.08320666  0.39800394  0.37543792    -0.01800
C832        C  0.05851654  0.39405035  0.35940095    -0.09300
C833        C  0.02492856  0.47157188  0.41106211     0.64900
H834        H  0.07487733  0.47316720  0.42986082     0.10400
C835        C  0.10305169  0.37109995  0.36597419     0.63300
H836        H  0.05340982  0.37156349  0.34048938     0.07700
F837        F  0.96410722  0.35175067  0.45779047    -0.19700
F838        F  0.98019892  0.31840223  0.40835847    -0.16000
F839        F  0.94138765  0.33963645  0.40074924    -0.19400
F840        F  0.99997778  0.48130566  0.30582798    -0.22800
F841        F  0.99204972  0.43296708  0.26824880    -0.24300
F842        F  0.03101392  0.44296640  0.29440003    -0.18300
F843        F  0.11067093  0.35574028  0.40144759    -0.20800
F844        F  0.12385534  0.38706250  0.34759895    -0.21900
F845        F  0.09368650  0.34494322  0.34016938    -0.19100
F846        F  0.03477190  0.49582361  0.43887642    -0.19200
F847        F  0.00535304  0.45320331  0.42986572    -0.23000
F848        F  0.01527533  0.48994290  0.37913817    -0.24600
C849        C  0.90271822  0.32241170  0.52189785    -0.11500
C850        C  0.89612720  0.29830175  0.49079336     0.11100
C851        C  0.89151971  0.31065895  0.45129551    -0.03300
C852        C  0.89529975  0.34647598  0.44377797    -0.06000
C853        C  0.90414226  0.37018916  0.47383550    -0.16800
C854        C  0.90709651  0.35831763  0.51394114     0.02100
C855        C  0.89779198  0.26006790  0.49851794     0.12100
C856        C  0.88321422  0.28600937  0.41693059     0.62700
H857        H  0.89238721  0.35610747  0.41356802     0.12100
C858        C  0.91474625  0.38342480  0.54795564     0.54800
H859        H  0.90571307  0.31251285  0.55207734     0.07900
C860        C  0.92161306  0.24367482  0.49794695    -0.05900
C861        C  0.92212020  0.20709246  0.49878506    -0.06600
C862        C  0.89975360  0.18582465  0.49764763    -0.16200
C863        C  0.87609448  0.20250000  0.50410930    -0.01800
C864        C  0.87547562  0.23943010  0.50330056    -0.09300
C865        C  0.94642728  0.26450497  0.49250130     0.64900
H866        H  0.94041824  0.19535998  0.49680852     0.10400
C867        C  0.85128925  0.18287666  0.51301479     0.63300
H868        H  0.85734758  0.25224893  0.50566707     0.07700
F869        F  0.93890637  0.39716078  0.54089268    -0.19700
F870        F  0.91494175  0.36705001  0.58511757    -0.16000
F871        F  0.89768207  0.41033652  0.55005359    -0.19400
F872        F  0.85958017  0.27120889  0.42567563    -0.22800
F873        F  0.90060312  0.25976194  0.41197275    -0.24300
F874        F  0.88131413  0.30321660  0.38043531    -0.18300
F875        F  0.83989375  0.19776244  0.54660817    -0.20800
F876        F  0.85494996  0.14804493  0.52143657    -0.21900
F877        F  0.83492171  0.18524635  0.48030292    -0.19100
F878        F  0.96750718  0.24349943  0.49221795    -0.19200
F879        F  0.94971630  0.28870571  0.52363064    -0.23000
F880        F  0.94573476  0.28154224  0.45597523    -0.24600
C881        C  0.81560905  0.52690806  0.28809307    -0.11500
C882        C  0.84171424  0.52052856  0.28846102     0.11100
C883        C  0.85635048  0.52640012  0.25321711    -0.03300
C884        C  0.84396085  0.53731965  0.21798428    -0.06000
C885        C  0.81738460  0.54152956  0.21631806    -0.16800
C886        C  0.80303226  0.53784656  0.25284505     0.02100
C887        C  0.85267607  0.50377980  0.32459632     0.12100
C888        C  0.88475723  0.51955314  0.25229272     0.62700
H889        H  0.85499940  0.54123700  0.19068791     0.12100
C890        C  0.77471075  0.54456337  0.25549993     0.54800
H891        H  0.80502016  0.52214551  0.31569140     0.07900
C892        C  0.86139644  0.52282461  0.35895871    -0.05900
C893        C  0.87454799  0.50499966  0.38929355    -0.06600
C894        C  0.87887126  0.46867733  0.38655420    -0.16200
C895        C  0.86516552  0.44895351  0.35564848    -0.01800
C896        C  0.85343590  0.46736875  0.32438079    -0.09300
C897        C  0.85681700  0.56172506  0.36334161     0.64900
H898        H  0.88145995  0.51993152  0.41502622     0.10400
C899        C  0.86134139  0.40908450  0.35526933     0.63300
H900        H  0.84465583  0.45349503  0.29892359     0.07700
F901        F  0.77065483  0.57966880  0.24951120    -0.19700
F902        F  0.76480774  0.53638440  0.29316456    -0.16000
F903        F  0.76154255  0.52435884  0.22698653    -0.19400
F904        F  0.88871128  0.48431134  0.25749861    -0.22800
F905        F  0.89707027  0.53830229  0.28296553    -0.24300
F906        F  0.89572588  0.52928098  0.21587938    -0.18300
F907        F  0.84698432  0.39739455  0.32227834    -0.20800
F908        F  0.84814948  0.39883246  0.38939460    -0.21900
F909        F  0.88406248  0.39197466  0.35327457    -0.19100
F910        F  0.86699805  0.57554850  0.39901628    -0.19200
F911        F  0.83089301  0.56732420  0.36353052    -0.23000
F912        F  0.86779219  0.57952935  0.33137239    -0.24600
C913        C  0.97063117  0.68598701  0.73633701    -0.11500
C914        C  0.98905031  0.66018755  0.73940093     0.11100
C915        C  0.98252558  0.62476934  0.72923464    -0.03300
C916        C  0.95820163  0.61718155  0.71391800    -0.06000
C917        C  0.94123933  0.64364722  0.70566153    -0.16800
C918        C  0.94702595  0.67846255  0.71753753     0.02100
C919        C  0.01600053  0.67099708  0.74599651     0.12100
C920        C  0.00133112  0.59512751  0.73181566     0.62700
H921        H  0.95275632  0.59055485  0.70553444     0.12100
C922        C  0.92885896  0.70734111  0.70847159     0.54800
H923        H  0.97566079  0.71248662  0.74572557     0.07900
C924        C  0.03036909  0.68665393  0.71458425    -0.05900
C925        C  0.05665418  0.68137777  0.71382939    -0.06600
C926        C  0.06788805  0.65713317  0.73957337    -0.16200
C927        C  0.05432991  0.64729741  0.77554933    -0.01800
C928        C  0.02865179  0.65669562  0.77880962    -0.09300
C929        C  0.01794779  0.70623215  0.68024464     0.64900
H930        H  0.06801507  0.69324098  0.69015939     0.10400
C931        C  0.06531589  0.62574774  0.80954196     0.63300
H932        H  0.01715857  0.64812364  0.80419504     0.07700
F933        F  0.93817573  0.73962361  0.72205234    -0.19700
F934        F  0.90576838  0.70039199  0.72723053    -0.16000
F935        F  0.92517512  0.70903385  0.66705562    -0.19400
F936        F  0.00772629  0.58941133  0.77176739    -0.22800
F937        F  0.02306605  0.60325536  0.70989106    -0.24300
F938        F  0.99122075  0.56393870  0.71621904    -0.18300
F939        F  0.08493828  0.64448777  0.82850084    -0.20800
F940        F  0.07375758  0.59420476  0.79454058    -0.21900
F941        F  0.04740458  0.61803192  0.83910172    -0.19100
F942        F  0.03561184  0.71770020  0.65197496    -0.19200
F943        F  0.00592348  0.73523138  0.69559135    -0.23000
F944        F  0.00031147  0.68467318  0.66025440    -0.24600
C945        C  0.90417118  0.72331317  0.57329616    -0.11500
C946        C  0.88186644  0.73891935  0.58737577     0.11100
C947        C  0.86058795  0.71677448  0.59663876    -0.03300
C948        C  0.86468406  0.68091923  0.60235939    -0.06000
C949        C  0.88863985  0.66602895  0.59501258    -0.16800
C950        C  0.90696500  0.68681264  0.57404881     0.02100
C951        C  0.88254975  0.77760967  0.59515854     0.12100
C952        C  0.83381944  0.72971436  0.60337301     0.62700
H953        H  0.84924141  0.66538370  0.61503146     0.12100
C954        C  0.92849096  0.67155758  0.54975648     0.54800
H955        H  0.91966325  0.73971521  0.56193488     0.07900
C956        C  0.87988638  0.79240775  0.63471214    -0.05900
C957        C  0.88207116  0.82880427  0.63965961    -0.06600
C958        C  0.88907513  0.85114080  0.60784342    -0.16200
C959        C  0.89141316  0.83680177  0.56836367    -0.01800
C960        C  0.88775319  0.80022103  0.56254113    -0.09300
C961        C  0.87604071  0.77204574  0.67365659     0.64900
H962        H  0.88023566  0.83972833  0.66995869     0.10400
C963        C  0.89792603  0.86008399  0.53291068     0.63300
H964        H  0.88976339  0.78879210  0.53256005     0.07700
F965        F  0.92774787  0.68432447  0.51075158    -0.19700
F966        F  0.92628800  0.63554554  0.54689751    -0.16000
F967        F  0.95169331  0.68122434  0.56706331    -0.19400
F968        F  0.83173056  0.76497989  0.59585697    -0.22800
F969        F  0.82643188  0.72343304  0.64287565    -0.24300
F970        F  0.81721594  0.71162660  0.57753464    -0.18300
F971        F  0.89701708  0.84173311  0.49647487    -0.20800
F972        F  0.92222107  0.87437222  0.53772135    -0.21900
F973        F  0.88071216  0.88678314  0.53098623    -0.19100
F974        F  0.85217077  0.77882755  0.68911392    -0.19200
F975        F  0.89421536  0.78305221  0.70183774    -0.23000
F976        F  0.87813574  0.73645286  0.66910546    -0.24600
C977        C  0.81902923  0.49638128  0.80819417    -0.11500
C978        C  0.83494828  0.52601465  0.80362196     0.11100
C979        C  0.84187685  0.54684679  0.83793278    -0.03300
C980        C  0.83243679  0.53714051  0.87605618    -0.06000
C981        C  0.81613646  0.50780740  0.88069243    -0.16800
C982        C  0.80980398  0.48643805  0.84644386     0.02100
C983        C  0.84425497  0.53508678  0.76262652     0.12100
C984        C  0.85873110  0.57962851  0.83415590     0.62700
H985        H  0.83692187  0.55329659  0.90244018     0.12100
C986        C  0.79322462  0.45344682  0.84933363     0.54800
H987        H  0.81379466  0.48103315  0.78147848     0.07900
C988        C  0.86630016  0.52043359  0.74627766    -0.05900
C989        C  0.87722270  0.53568580  0.71177677    -0.06600
C990        C  0.86712008  0.56543674  0.69264463    -0.16200
C991        C  0.84347550  0.57822523  0.70829073    -0.01800
C992        C  0.83233467  0.56184128  0.74222039    -0.09300
C993        C  0.87905222  0.48997911  0.76668079     0.64900
H994        H  0.89543803  0.52606235  0.70274038     0.10400
C995        C  0.82974140  0.60942980  0.69131374     0.63300
H996        H  0.81482773  0.57132031  0.75517075     0.07700
F997        F  0.79908218  0.42987254  0.81876580    -0.19700
F998        F  0.76789542  0.46189666  0.84552203    -0.16000
F999        F  0.79685754  0.43689078  0.88583388    -0.19400
F1000       F  0.84658286  0.60397575  0.81091974    -0.22800
F1001       F  0.88160350  0.57150741  0.81606466    -0.24300
F1002       F  0.86413277  0.59494942  0.87154206    -0.18300
F1003       F  0.80896847  0.61849779  0.71468620    -0.20800
F1004       F  0.82045280  0.60119103  0.65308025    -0.21900
F1005       F  0.84586414  0.63854030  0.69027400    -0.19100
F1006       F  0.90075476  0.47983580  0.74634743    -0.19200
F1007       F  0.86230398  0.46150132  0.76764293    -0.23000
F1008       F  0.88602358  0.49918782  0.80590171    -0.24600
C1009       C  0.69815074  0.52422836  0.26076653    -0.11500
C1010       C  0.68716541  0.52299680  0.29920969     0.11100
C1011       C  0.66201411  0.51002041  0.30389984    -0.03300
C1012       C  0.64925728  0.49604560  0.26979037    -0.06000
C1013       C  0.66121084  0.49307630  0.23157860    -0.16800
C1014       C  0.68523906  0.51108826  0.22624235     0.02100
C1015       C  0.70242782  0.53604262  0.33400128     0.12100
C1016       C  0.64896028  0.51045925  0.34495214     0.62700
H1017       H  0.62960364  0.48770298  0.27317952     0.12100
C1018       C  0.69824725  0.51793486  0.18576154     0.54800
H1019       H  0.71700067  0.53610713  0.25780536     0.07900
C1020       C  0.71830414  0.51403076  0.35658149    -0.05900
C1021       C  0.73175016  0.52853206  0.38969683    -0.06600
C1022       C  0.72987310  0.56387909  0.40053959    -0.16200
C1023       C  0.71494927  0.58617041  0.37712044    -0.01800
C1024       C  0.70127900  0.57175387  0.34398798    -0.09300
C1025       C  0.72191890  0.47539261  0.34757929     0.64900
H1026       H  0.74367162  0.51192692  0.40770309     0.10400
C1027       C  0.71418385  0.62499219  0.38665643     0.63300
H1028       H  0.68950247  0.58817947  0.32560588     0.07700
F1029       F  0.71683585  0.49353473  0.17928901    -0.19700
F1030       F  0.70988891  0.55086445  0.18629905    -0.16000
F1031       F  0.68147515  0.51725692  0.15350653    -0.19400
F1032       F  0.64791669  0.54444308  0.35952008    -0.22800
F1033       F  0.66247290  0.49074285  0.37199392    -0.24300
F1034       F  0.62428767  0.49676751  0.34289414    -0.18300
F1035       F  0.69840545  0.64215307  0.36024791    -0.20800
F1036       F  0.73850150  0.63957148  0.38354586    -0.21900
F1037       F  0.70530354  0.63024107  0.42562038    -0.19100
F1038       F  0.74730236  0.47009502  0.33878400    -0.19200
F1039       F  0.70745166  0.46252423  0.31541752    -0.23000
F1040       F  0.71537852  0.45628260  0.38147630    -0.24600
C1041       C  0.71232712  0.58309551  0.87868198    -0.11500
C1042       C  0.70251795  0.56997677  0.84185598     0.11100
C1043       C  0.67590389  0.56555905  0.83672940    -0.03300
C1044       C  0.65998910  0.57926476  0.86655364    -0.06000
C1045       C  0.66967618  0.59772408  0.90084794    -0.16800
C1046       C  0.69619397  0.59539846  0.90949621     0.02100
C1047       C  0.71994627  0.56458275  0.80735400     0.12100
C1048       C  0.66431750  0.54773264  0.79924314     0.62700
H1049       H  0.63954594  0.57764938  0.86199494     0.12100
C1050       C  0.70805356  0.60196609  0.95087031     0.54800
H1051       H  0.73281486  0.58393719  0.88318206     0.07900
C1052       C  0.72728672  0.59296631  0.78249604    -0.05900
C1053       C  0.73861428  0.58578844  0.74497773    -0.06600
C1054       C  0.74296936  0.55143079  0.73215600    -0.16200
C1055       C  0.73722942  0.52315821  0.75817533    -0.01800
C1056       C  0.72594993  0.53036382  0.79590594    -0.09300
C1057       C  0.72256323  0.63057730  0.79520614     0.64900
H1058       H  0.74368202  0.60696368  0.72480973     0.10400
C1059       C  0.74157622  0.48558217  0.74517280     0.63300
H1060       H  0.72044682  0.50923824  0.81585937     0.07700
F1061       F  0.72664065  0.57773476  0.95797300    -0.19700
F1062       F  0.69029535  0.59833531  0.98142359    -0.16000
F1063       F  0.71939701  0.63497632  0.95251822    -0.19400
F1064       F  0.67147519  0.51322791  0.79757581    -0.22800
F1065       F  0.67258252  0.56449380  0.76461716    -0.24300
F1066       F  0.63793069  0.54804181  0.79958827    -0.18300
F1067       F  0.76733806  0.48047651  0.74007190    -0.20800
F1068       F  0.72898454  0.47834004  0.70902906    -0.21900
F1069       F  0.73264621  0.46203596  0.77364864    -0.19100
F1070       F  0.73056784  0.65404927  0.76600885    -0.19200
F1071       F  0.73585844  0.63847647  0.83051372    -0.23000
F1072       F  0.69683076  0.63516770  0.80174794    -0.24600
C1073       C  0.67216255  0.26544100  0.09170506    -0.11500
C1074       C  0.65310196  0.28966028  0.09977107     0.11100
C1075       C  0.62787333  0.27745557  0.10676710    -0.03300
C1076       C  0.62327327  0.24136158  0.11022704    -0.06000
C1077       C  0.64287559  0.21689521  0.10742968    -0.16800
C1078       C  0.66722679  0.22905305  0.09404473     0.02100
C1079       C  0.66001516  0.32735164  0.10546397     0.12100
C1080       C  0.60602955  0.30255833  0.11251044     0.62700
H1081       H  0.60430807  0.23269071  0.11771080     0.12100
C1082       C  0.68828372  0.20495739  0.08119253     0.54800
H1083       H  0.69120491  0.27505715  0.08441955     0.07900
C1084       C  0.66872285  0.34029583  0.14355056    -0.05900
C1085       C  0.66900387  0.37654602  0.15086237    -0.06600
C1086       C  0.65974424  0.40005006  0.12216945    -0.16200
C1087       C  0.65351589  0.38727801  0.08273565    -0.01800
C1088       C  0.65381140  0.35097723  0.07502392    -0.09300
C1089       C  0.67555192  0.31573610  0.17756845     0.64900
H1090       H  0.67393071  0.38626549  0.18084921     0.10400
C1091       C  0.64530062  0.41065348  0.04861210     0.63300
H1092       H  0.64757849  0.34080145  0.04572044     0.07700
F1093       F  0.70793891  0.20721817  0.10916236    -0.19700
F1094       F  0.69756020  0.21516928  0.04383926    -0.16000
F1095       F  0.67990227  0.17048759  0.07733797    -0.19400
F1096       F  0.60271352  0.32138362  0.07752257    -0.22800
F1097       F  0.61126488  0.32547701  0.14439484    -0.24300
F1098       F  0.58318084  0.28518724  0.12078726    -0.18300
F1099       F  0.65836985  0.40212518  0.01364088    -0.20800
F1100       F  0.65024744  0.44569886  0.05707850    -0.21900
F1101       F  0.61946680  0.40551342  0.04156780    -0.19100
F1102       F  0.68346994  0.33374498  0.21222764    -0.19200
F1103       F  0.69515343  0.29461640  0.16538577    -0.23000
F1104       F  0.65454794  0.29500768  0.18751969    -0.24600
C1105       C  0.69230046  0.09168211  0.24429162    -0.11500
C1106       C  0.69178014  0.10824425  0.28228102     0.11100
C1107       C  0.67825692  0.13939480  0.28712139    -0.03300
C1108       C  0.66406778  0.15135960  0.25416610    -0.06000
C1109       C  0.66184493  0.13248377  0.21703026    -0.16800
C1110       C  0.67862482  0.10406875  0.21091828     0.02100
C1111       C  0.70490047  0.09173869  0.31676832     0.12100
C1112       C  0.67847854  0.15965799  0.32711140     0.62700
H1113       H  0.65483704  0.17607218  0.25757869     0.12100
C1114       C  0.68274913  0.08488212  0.17100046     0.54800
H1115       H  0.70336306  0.06834919  0.24079525     0.07900
C1116       C  0.69313401  0.06400362  0.33839374    -0.05900
C1117       C  0.70583410  0.05064982  0.37217687    -0.06600
C1118       C  0.72970126  0.06419306  0.38478851    -0.16200
C1119       C  0.74152077  0.09192110  0.36310811    -0.01800
C1120       C  0.72898700  0.10490394  0.32885924    -0.09300
C1121       C  0.66696739  0.04928323  0.32634278     0.64900
H1122       H  0.69698038  0.02987559  0.38963963     0.10400
C1123       C  0.76647921  0.10896506  0.37742422     0.63300
H1124       H  0.73752882  0.12617483  0.31185270     0.07700
F1125       F  0.70840963  0.07834456  0.16615948    -0.19700
F1126       F  0.67537263  0.10342243  0.13759922    -0.16000
F1127       F  0.66943583  0.05328596  0.17186539    -0.19400
F1128       F  0.70279283  0.17282324  0.33500019    -0.22800
F1129       F  0.67096375  0.13801249  0.35835879    -0.24300
F1130       F  0.66209375  0.18744135  0.32650133    -0.18300
F1131       F  0.78574869  0.08512800  0.37520532    -0.20800
F1132       F  0.76407274  0.12055246  0.41709456    -0.21900
F1133       F  0.77350605  0.13739693  0.35405707    -0.19100
F1134       F  0.65846793  0.02352382  0.35248295    -0.19200
F1135       F  0.66791966  0.03479308  0.28780592    -0.23000
F1136       F  0.64941305  0.07562212  0.32682089    -0.24600
C1137       C  0.65617756  0.83638736  0.01693408    -0.11500
C1138       C  0.63649644  0.81093116  0.01416950     0.11100
C1139       C  0.61101426  0.82188678  0.01083686    -0.03300
C1140       C  0.60669958  0.85697747  0.00119668    -0.06000
C1141       C  0.62678952  0.88207516  0.99899038    -0.16800
C1142       C  0.65148259  0.87214346  0.01160699     0.02100
C1143       C  0.64290018  0.77349429  0.00745661     0.12100
C1144       C  0.58849187  0.79698500  0.01844800     0.62700
H1145       H  0.58754996  0.86439653  0.99383727     0.12100
C1146       C  0.67326882  0.89795825  0.02030448     0.54800
H1147       H  0.67547814  0.82817756  0.02249027     0.07900
C1148       C  0.65132366  0.76169078  0.96888986    -0.05900
C1149       C  0.65130194  0.72559003  0.96060545    -0.06600
C1150       C  0.64233160  0.70107895  0.98875080    -0.16200
C1151       C  0.63573682  0.71254762  0.02819949    -0.01800
C1152       C  0.63671176  0.74876927  0.03727036    -0.09300
C1153       C  0.65939125  0.78701996  0.93585720     0.64900
H1154       H  0.65673817  0.71620406  0.93083221     0.10400
C1155       C  0.62680610  0.68680485  0.05992467     0.63300
H1156       H  0.63086901  0.75817282  0.06680245     0.07700
F1157       F  0.69173819  0.89475765  0.99079239    -0.19700
F1158       F  0.68397301  0.89063574  0.05749694    -0.16000
F1159       F  0.66537925  0.93213008  0.02208576    -0.19400
F1160       F  0.58822852  0.78825583  0.05895391    -0.22800
F1161       F  0.59021904  0.76672189  0.99547354    -0.24300
F1162       F  0.56547604  0.81204594  0.00949880    -0.18300
F1163       F  0.62492017  0.70254108  0.09778597    -0.20800
F1164       F  0.64381911  0.65991172  0.06270490    -0.21900
F1165       F  0.60305916  0.67320876  0.04924809    -0.19100
F1166       F  0.66506044  0.76983948  0.89992402    -0.19200
F1167       F  0.68097161  0.80582747  0.94807924    -0.23000
F1168       F  0.64005106  0.80984747  0.92799450    -0.24600
C1169       C  0.69038246  0.97994875  0.75053061    -0.11500
C1170       C  0.68675920  0.00411778  0.78216834     0.11100
C1171       C  0.69787716  0.03821198  0.77987644    -0.03300
C1172       C  0.71147283  0.04744644  0.74476584    -0.06000
C1173       C  0.71439900  0.02361050  0.71266479    -0.16800
C1174       C  0.70418229  0.98910491  0.71559714     0.02100
C1175       C  0.67109848  0.99294821  0.81730507     0.12100
C1176       C  0.69561825  0.06454014  0.81447324     0.62700
H1177       H  0.72006325  0.07337374  0.74209278     0.12100
C1178       C  0.70836911  0.96195493  0.68242686     0.54800
H1179       H  0.68214284  0.95384285  0.75343138     0.07900
C1180       C  0.64422024  0.99355485  0.81643509    -0.05900
C1181       C  0.63064651  0.98304819  0.85108493    -0.06600
C1182       C  0.64289023  0.97090943  0.88626975    -0.16200
C1183       C  0.67003843  0.97504797  0.88830646    -0.01800
C1184       C  0.68354572  0.98328709  0.85276041    -0.09300
C1185       C  0.62995051  0.00473697  0.77879133     0.64900
H1186       H  0.61008416  0.98409460  0.85061784     0.10400
C1187       C  0.68573772  0.97495933  0.92700543     0.63300
H1188       H  0.70422716  0.98419307  0.85329312     0.07700
F1189       F  0.69670642  0.97196934  0.64699656    -0.19700
F1190       F  0.69836305  0.92942448  0.69268158    -0.16000
F1191       F  0.73421367  0.95865521  0.67566484    -0.19400
F1192       F  0.70810580  0.05257864  0.84827856    -0.22800
F1193       F  0.67027094  0.06927423  0.82385401    -0.24300
F1194       F  0.70635413  0.09679002  0.80475821    -0.18300
F1195       F  0.69811606  0.94364632  0.92983648    -0.20800
F1196       F  0.67121152  0.98053395  0.96112118    -0.21900
F1197       F  0.70397403  0.00179377  0.92631893    -0.19100
F1198       F  0.60388694  0.00539706  0.78508219    -0.19200
F1199       F  0.63440242  0.98157038  0.74725300    -0.23000
F1200       F  0.63809650  0.03788094  0.76760576    -0.24600
C1201       C  0.49129495  0.21632760  0.24198951    -0.11500
C1202       C  0.51180823  0.19548066  0.23137331     0.11100
C1203       C  0.50791165  0.15915571  0.22405010    -0.03300
C1204       C  0.48318618  0.14708968  0.21578643    -0.06000
C1205       C  0.46295992  0.16984232  0.21816931    -0.16800
C1206       C  0.46626155  0.20332307  0.23645013     0.02100
C1207       C  0.53485497  0.21244976  0.21548891     0.12100
C1208       C  0.52979026  0.13402414  0.22071350     0.62700
H1209       H  0.47977216  0.12069229  0.20426919     0.12100
C1210       C  0.44378473  0.22493315  0.24934179     0.54800
H1211       H  0.49491593  0.24355114  0.25007751     0.07900
C1212       C  0.53882284  0.21204284  0.17310688    -0.05900
C1213       C  0.56328236  0.20629617  0.15920877    -0.06600
C1214       C  0.58351741  0.20348965  0.18654596    -0.16200
C1215       C  0.58030713  0.21720193  0.22646723    -0.01800
C1216       C  0.55546028  0.21879605  0.24154804    -0.09300
C1217       C  0.51761738  0.21128993  0.14196193     0.64900
H1218       H  0.56534405  0.20039257  0.12742412     0.10400
C1219       C  0.60185724  0.23139360  0.25304091     0.63300
H1220       H  0.55225215  0.22286350  0.27368443     0.07700
F1221       F  0.43020415  0.20724875  0.27886636    -0.19700
F1222       F  0.42781527  0.23060958  0.21702364    -0.16000
F1223       F  0.45161827  0.25713026  0.26525076    -0.19400
F1224       F  0.52105894  0.09959280  0.22245213    -0.22800
F1225       F  0.54664887  0.13988120  0.25249495    -0.24300
F1226       F  0.54254965  0.13828732  0.18451642    -0.18300
F1227       F  0.62465794  0.23399872  0.23217466    -0.20800
F1228       F  0.60470698  0.21038582  0.28645535    -0.21900
F1229       F  0.59601338  0.26460793  0.26647234    -0.19100
F1230       F  0.52373436  0.23416832  0.11114244    -0.19200
F1231       F  0.49494351  0.22141619  0.15845447    -0.23000
F1232       F  0.51453533  0.17790707  0.12573936    -0.24600
C1233       C  0.33766054  0.09088590  0.34781251    -0.11500
C1234       C  0.32860098  0.07968484  0.30969550     0.11100
C1235       C  0.30855896  0.05429122  0.30685504    -0.03300
C1236       C  0.29810547  0.04117060  0.34270777    -0.06000
C1237       C  0.30739543  0.05176915  0.38095150    -0.16800
C1238       C  0.32744034  0.07737380  0.38382431     0.02100
C1239       C  0.34304587  0.09201667  0.27420424     0.12100
C1240       C  0.29753337  0.03976104  0.26737564     0.62700
H1241       H  0.28260268  0.02187286  0.34074929     0.12100
C1242       C  0.33828533  0.09060248  0.42408842     0.54800
H1243       H  0.35346331  0.10970329  0.34898784     0.07900
C1244       C  0.34068014  0.12561502  0.25781314    -0.05900
C1245       C  0.35750756  0.13603266  0.22706374    -0.06600
C1246       C  0.37737813  0.11481402  0.21290037    -0.16200
C1247       C  0.38044191  0.08144699  0.23195834    -0.01800
C1248       C  0.36224861  0.07040730  0.26050195    -0.09300
C1249       C  0.32184426  0.15235212  0.27277867     0.64900
H1250       H  0.35591909  0.16248988  0.21678909     0.10400
C1251       C  0.40262395  0.05678737  0.22481346     0.63300
H1252       H  0.36354443  0.04494045  0.27425529     0.07700
F1253       F  0.35345509  0.12045398  0.41945079    -0.19700
F1254       F  0.35322742  0.06529211  0.44078209    -0.16000
F1255       F  0.31885335  0.09881427  0.45051753    -0.19400
F1256       F  0.30071997  0.00400022  0.26580656    -0.22800
F1257       F  0.30878993  0.05410219  0.23344861    -0.24300
F1258       F  0.27172093  0.04616698  0.26606018    -0.18300
F1259       F  0.40467378  0.03296629  0.25584844    -0.20800
F1260       F  0.42584340  0.07451050  0.22334848    -0.21900
F1261       F  0.39864179  0.03770023  0.18945597    -0.19100
F1262       F  0.30814331  0.16448004  0.24024493    -0.19200
F1263       F  0.33518783  0.18028369  0.29044704    -0.23000
F1264       F  0.30468326  0.13921728  0.30077725    -0.24600
C1265       C  0.50342351  0.92069089  0.84115949    -0.11500
C1266       C  0.50117827  0.88475979  0.84928209     0.11100
C1267       C  0.47667482  0.86991043  0.85489427    -0.03300
C1268       C  0.45713073  0.89207420  0.86686291    -0.06000
C1269       C  0.46181153  0.92825127  0.87053439    -0.16800
C1270       C  0.48416501  0.94322067  0.85366097     0.02100
C1271       C  0.52176570  0.87300838  0.87594437     0.12100
C1272       C  0.47225922  0.83087027  0.85060150     0.62700
H1273       H  0.43878521  0.88122418  0.87549586     0.12100
C1274       C  0.48796897  0.98246989  0.85084676     0.54800
H1275       H  0.52204602  0.93157035  0.83350415     0.07900
C1276       C  0.54632449  0.86727935  0.86095937    -0.05900
C1277       C  0.56716241  0.87782663  0.88508425    -0.06600
C1278       C  0.56393921  0.89802478  0.92088578    -0.16200
C1279       C  0.53917969  0.89880855  0.93851055    -0.01800
C1280       C  0.51882806  0.88309424  0.91668831    -0.09300
C1281       C  0.55104798  0.85495892  0.81794512     0.64900
H1282       H  0.58611913  0.87403482  0.87311954     0.10400
C1283       C  0.53300868  0.91847119  0.97745282     0.63300
H1284       H  0.49959264  0.88502203  0.92819946     0.07700
F1285       F  0.51116333  0.99155087  0.83347110    -0.19700
F1286       F  0.48708852  0.99759765  0.88909096    -0.16000
F1287       F  0.46886714  0.99570068  0.82709648    -0.19400
F1288       F  0.47846511  0.82052326  0.81164980    -0.22800
F1289       F  0.44705721  0.82131755  0.85740598    -0.24300
F1290       F  0.48735229  0.81355760  0.87770308    -0.18300
F1291       F  0.50701381  0.92058992  0.98361861    -0.20800
F1292       F  0.54262142  0.95237015  0.97600479    -0.21900
F1293       F  0.54283665  0.90123617  0.01024857    -0.19100
F1294       F  0.57023815  0.83084283  0.81728073    -0.19200
F1295       F  0.55847187  0.88324263  0.79472000    -0.23000
F1296       F  0.52944907  0.83927877  0.80094023    -0.24600
C1297       C  0.36462633  0.01971802  0.82318691    -0.11500
C1298       C  0.34330275  0.99718105  0.82031028     0.11100
C1299       C  0.33863931  0.97257604  0.85109698    -0.03300
C1300       C  0.35658757  0.96979951  0.88232234    -0.06000
C1301       C  0.37989879  0.98914655  0.88288401    -0.16800
C1302       C  0.38291066  0.01691775  0.85420571     0.02100
C1303       C  0.32841534  0.99765994  0.78217694     0.12100
C1304       C  0.31585465  0.94727310  0.85184630     0.62700
H1305       H  0.35235762  0.95038717  0.90467309     0.12100
C1306       C  0.40455248  0.04446793  0.85572429     0.54800
H1307       H  0.36712659  0.03906798  0.79977060     0.07900
C1308       C  0.31199872  0.02502598  0.77192589    -0.05900
C1309       C  0.30065572  0.02443710  0.73337370    -0.06600
C1310       C  0.30522926  0.99779078  0.70482322    -0.16200
C1311       C  0.32172851  0.97044358  0.71508751    -0.01800
C1312       C  0.33297849  0.97092605  0.75380341    -0.09300
C1313       C  0.30581952  0.05553895  0.79977991     0.64900
H1314       H  0.28821081  0.04545023  0.72528985     0.10400
C1315       C  0.32748748  0.94077375  0.68574121     0.63300
H1316       H  0.34600015  0.95068860  0.76211293     0.07700
F1317       F  0.40187670  0.06549088  0.88969526    -0.19700
F1318       F  0.40424550  0.06613800  0.82244767    -0.16000
F1319       F  0.42813678  0.02950261  0.85630119    -0.19400
F1320       F  0.32432631  0.91342839  0.84859779    -0.22800
F1321       F  0.29863382  0.95240942  0.82094783    -0.24300
F1322       F  0.30324106  0.95093486  0.88837659    -0.18300
F1323       F  0.34082229  0.91457725  0.70424424    -0.20800
F1324       F  0.34218914  0.95337749  0.65415983    -0.21900
F1325       F  0.30501812  0.92601000  0.67059777    -0.19100
F1326       F  0.27962709  0.05784630  0.80314426    -0.19200
F1327       F  0.31539678  0.08614425  0.78314353    -0.23000
F1328       F  0.31578548  0.05262393  0.83832068    -0.24600
C1329       C  0.52290634  0.43417181  0.24393657    -0.11500
C1330       C  0.52225157  0.39788052  0.23729946     0.11100
C1331       C  0.49911587  0.37881230  0.24005457    -0.03300
C1332       C  0.47650885  0.39747370  0.23869935    -0.06000
C1333       C  0.47718840  0.43417761  0.23813518    -0.16800
C1334       C  0.50041444  0.45294428  0.24462099     0.02100
C1335       C  0.54436875  0.38394930  0.21603357     0.12100
C1336       C  0.49863987  0.33932924  0.24185011     0.62700
H1337       H  0.45850921  0.38347464  0.23482915     0.12100
C1338       C  0.50163820  0.49252483  0.24900612     0.54800
H1339       H  0.54120156  0.44801117  0.24360546     0.07900
C1340       C  0.54770901  0.39277604  0.17480016    -0.05900
C1341       C  0.57206628  0.40294348  0.16214216    -0.06600
C1342       C  0.59302385  0.40169839  0.18841147    -0.16200
C1343       C  0.59029156  0.38260477  0.22489627    -0.01800
C1344       C  0.56558739  0.37567106  0.23934457    -0.09300
C1345       C  0.52585205  0.39925300  0.14584502     0.64900
H1346       H  0.57366335  0.41575683  0.13326745     0.10400
C1347       C  0.61241875  0.36968206  0.24955906     0.63300
H1348       H  0.56290147  0.36668000  0.27009602     0.07700
F1349       F  0.52630723  0.50504722  0.25582152    -0.19700
F1350       F  0.48689383  0.50274303  0.28151414    -0.16000
F1351       F  0.49271482  0.50769484  0.21417677    -0.19400
F1352       F  0.51286641  0.32915518  0.27476984    -0.22800
F1353       F  0.50894843  0.32526171  0.20693990    -0.24300
F1354       F  0.47403982  0.32604806  0.24637146    -0.18300
F1355       F  0.61381577  0.38743220  0.28632605    -0.20800
F1356       F  0.63535245  0.37360614  0.22945427    -0.21900
F1357       F  0.60858808  0.33445686  0.25692512    -0.19100
F1358       F  0.53191374  0.38677479  0.10759958    -0.19200
F1359       F  0.52192375  0.43479594  0.14372074    -0.23000
F1360       F  0.50346011  0.38253692  0.15733019    -0.24600
C1361       C  0.39034301  0.27139208  0.11257931    -0.11500
C1362       C  0.41196995  0.29183766  0.12359141     0.11100
C1363       C  0.43507343  0.27488929  0.13140972    -0.03300
C1364       C  0.43489493  0.23826023  0.13259159    -0.06000
C1365       C  0.41270809  0.21749044  0.12648102    -0.16800
C1366       C  0.39068649  0.23441145  0.11186321     0.02100
C1367       C  0.40886097  0.32926206  0.13504431     0.12100
C1368       C  0.46016271  0.29363363  0.14199029     0.62700
H1369       H  0.45199675  0.22635112  0.14264282     0.12100
C1370       C  0.36750567  0.21512288  0.09431396     0.54800
H1371       H  0.37283515  0.28440856  0.10532469     0.07900
C1372       C  0.41350506  0.35721704  0.10819985    -0.05900
C1373       C  0.41568939  0.39158766  0.12424378    -0.06600
C1374       C  0.41208765  0.39878406  0.16570092    -0.16200
C1375       C  0.40489969  0.37078452  0.19188806    -0.01800
C1376       C  0.40392883  0.33649546  0.17588312    -0.09300
C1377       C  0.41679324  0.35045787  0.06322310     0.64900
H1378       H  0.42077723  0.41312914  0.10461339     0.10400
C1379       C  0.39802614  0.37601283  0.23639968     0.63300
H1380       H  0.39974693  0.31455611  0.19542278     0.07700
F1381       F  0.36109575  0.22982454  0.05771250    -0.19700
F1382       F  0.34715629  0.21822227  0.12057857    -0.16000
F1383       F  0.37185880  0.18013110  0.08684252    -0.19400
F1384       F  0.45930572  0.32962365  0.14040305    -0.22800
F1385       F  0.47872588  0.28294466  0.11521347    -0.24300
F1386       F  0.46721977  0.28455952  0.18070246    -0.18300
F1387       F  0.37440626  0.39094172  0.23923902    -0.20800
F1388       F  0.41588043  0.39708579  0.25627696    -0.21900
F1389       F  0.39665024  0.34459750  0.25677287    -0.19100
F1390       F  0.42015463  0.38127086  0.04210514    -0.19200
F1391       F  0.39530080  0.33307536  0.04806728    -0.23000
F1392       F  0.43780975  0.33012371  0.05660723    -0.24600
C1393       C  0.35569844  0.52250126  0.27563017    -0.11500
C1394       C  0.36506740  0.52988072  0.31456961     0.11100
C1395       C  0.39160883  0.53064785  0.32178727    -0.03300
C1396       C  0.40780227  0.52105103  0.29001646    -0.06000
C1397       C  0.39822158  0.50774627  0.25271756    -0.16800
C1398       C  0.37192564  0.51296657  0.24379557     0.02100
C1399       C  0.34670640  0.53106025  0.34828139     0.12100
C1400       C  0.40269551  0.53933614  0.36351351     0.62700
H1401       H  0.42813001  0.52232076  0.29514030     0.12100
C1402       C  0.35951117  0.50915237  0.20224232     0.54800
H1403       H  0.33530108  0.52315497  0.27031961     0.07900
C1404       C  0.33379919  0.56155076  0.35984724    -0.05900
C1405       C  0.31836766  0.56032147  0.39464329    -0.06600
C1406       C  0.31540930  0.52955980  0.41715253    -0.16200
C1407       C  0.32651575  0.49827628  0.40307021    -0.01800
C1408       C  0.34221336  0.49983294  0.36895024    -0.09300
C1409       C  0.33636078  0.59494238  0.33568851     0.64900
H1410       H  0.30914859  0.58369793  0.40534142     0.10400
C1411       C  0.32237726  0.46246075  0.42166801     0.63300
H1412       H  0.35144083  0.47632342  0.35847311     0.07700
F1413       F  0.34556667  0.53857064  0.19466819    -0.19700
F1414       F  0.34302713  0.48031406  0.20180141    -0.16000
F1415       F  0.37675939  0.50598611  0.17103071    -0.19400
F1416       F  0.39461579  0.51449291  0.39101612    -0.22800
F1417       F  0.39486239  0.57177012  0.37653933    -0.24300
F1418       F  0.42909345  0.54000124  0.36333614    -0.18300
F1419       F  0.31325311  0.43932791  0.39211756    -0.20800
F1420       F  0.30509292  0.46201137  0.45311409    -0.21900
F1421       F  0.34542788  0.45073983  0.43583036    -0.19100
F1422       F  0.32223456  0.62154227  0.35245042    -0.19200
F1423       F  0.32778395  0.58878181  0.29657904    -0.23000
F1424       F  0.36155040  0.60627988  0.33435028    -0.24600
C1425       C  0.53220100  0.68116571  0.91308011    -0.11500
C1426       C  0.53057418  0.70558145  0.88178240     0.11100
C1427       C  0.50655380  0.71417939  0.86617309    -0.03300
C1428       C  0.48470230  0.69954139  0.88468060    -0.06000
C1429       C  0.48662730  0.67392637  0.91479841    -0.16800
C1430       C  0.51084628  0.66313564  0.92758291     0.02100
C1431       C  0.55505336  0.71539885  0.86256187     0.12100
C1432       C  0.50416797  0.73710329  0.82932794     0.62700
H1433       H  0.46594309  0.70681271  0.87456647     0.12100
C1434       C  0.51483949  0.63043565  0.95239189     0.54800
H1435       H  0.55078726  0.67405317  0.92397074     0.07900
C1436       C  0.57284411  0.73314264  0.88787508    -0.05900
C1437       C  0.59335845  0.71407255  0.90242739    -0.06600
C1438       C  0.59788112  0.68029581  0.88717171    -0.16200
C1439       C  0.58436504  0.66821761  0.85185319    -0.01800
C1440       C  0.56395305  0.68815639  0.83818871    -0.09300
C1441       C  0.56646555  0.76779837  0.90714425     0.64900
H1442       H  0.60444149  0.72437801  0.92770118     0.10400
C1443       C  0.58922220  0.63325001  0.83109983     0.63300
H1444       H  0.55125858  0.67753037  0.81496228     0.07700
F1445       F  0.53945676  0.61861914  0.94839998    -0.19700
F1446       F  0.49858053  0.60361800  0.93910695    -0.16000
F1447       F  0.51077403  0.63731961  0.99296534    -0.19400
F1448       F  0.51519209  0.72101780  0.79622914    -0.22800
F1449       F  0.51644230  0.76892195  0.83623645    -0.24300
F1450       F  0.47894623  0.74314671  0.81996186    -0.18300
F1451       F  0.58968095  0.60682923  0.85926477    -0.20800
F1452       F  0.61212031  0.63499725  0.81057680    -0.21900
F1453       F  0.57043130  0.62433250  0.80301354    -0.19100
F1454       F  0.58831250  0.78520548  0.92081476    -0.19200
F1455       F  0.54984403  0.76267439  0.93909668    -0.23000
F1456       F  0.55517631  0.78877297  0.87903699    -0.24600
C1457       C  0.43032374  0.84966148  0.01803450    -0.11500
C1458       C  0.42211716  0.82293938  0.99109852     0.11100
C1459       C  0.41139776  0.83179448  0.95331512    -0.03300
C1460       C  0.41011173  0.86725662  0.94315816    -0.06000
C1461       C  0.41985332  0.89412297  0.96875076    -0.16800
C1462       C  0.42938678  0.88532153  0.00747626     0.02100
C1463       C  0.42718057  0.78577041  0.00049336     0.12100
C1464       C  0.40193235  0.80372942  0.92336972     0.62700
H1465       H  0.40198952  0.87429645  0.91431351     0.12100
C1466       C  0.43799360  0.91325439  0.03785807     0.54800
H1467       H  0.43824594  0.84226522  0.04690723     0.07900
C1468       C  0.45082411  0.77103895  0.99046629    -0.05900
C1469       C  0.45222929  0.73444352  0.98737051    -0.06600
C1470       C  0.43106215  0.71221759  0.99550575    -0.16200
C1471       C  0.40887083  0.72712241  0.01232070    -0.01800
C1472       C  0.40697469  0.76380864  0.01318793    -0.09300
C1473       C  0.47412678  0.79405128  0.98147547     0.64900
H1474       H  0.46954932  0.72332839  0.97598212     0.10400
C1475       C  0.38674155  0.70540288  0.02882493     0.63300
H1476       H  0.38922304  0.77540403  0.02235679     0.07700
F1477       F  0.46035854  0.92917952  0.02497640    -0.19700
F1478       F  0.44245073  0.89938950  0.07567422    -0.16000
F1479       F  0.41938529  0.93799412  0.04199087    -0.19400
F1480       F  0.42131337  0.78115730  0.91413995    -0.22800
F1481       F  0.39357258  0.81789685  0.88748748    -0.24300
F1482       F  0.38179493  0.78491493  0.94003201    -0.18300
F1483       F  0.37811572  0.72043303  0.06445299    -0.20800
F1484       F  0.39371728  0.67167472  0.03748938    -0.21900
F1485       F  0.36698999  0.70424543  0.00100238    -0.19100
F1486       F  0.49481019  0.77462947  0.96970372    -0.19200
F1487       F  0.48095237  0.81307793  0.01589704    -0.23000
F1488       F  0.46882273  0.81695003  0.95079227    -0.24600
C1489       C  0.38794502  0.57929403  0.83963842    -0.11500
C1490       C  0.36278394  0.58942950  0.84396134     0.11100
C1491       C  0.35555877  0.60908569  0.87825037    -0.03300
C1492       C  0.37461633  0.62044217  0.90582436    -0.06000
C1493       C  0.40064835  0.61299025  0.89998229    -0.16800
C1494       C  0.40698167  0.58930788  0.86761763     0.02100
C1495       C  0.34466001  0.57834168  0.81167743     0.12100
C1496       C  0.32788997  0.61816691  0.88530858     0.62700
H1497       H  0.36888516  0.63488767  0.93237631     0.12100
C1498       C  0.43301916  0.57391549  0.85897999     0.54800
H1499       H  0.39275832  0.56305863  0.81368023     0.07900
C1500       C  0.34297572  0.59719711  0.77525113    -0.05900
C1501       C  0.32764394  0.58327450  0.74379623    -0.06600
C1502       C  0.31501157  0.55068105  0.74721891    -0.16200
C1503       C  0.31691158  0.53159441  0.78348676    -0.01800
C1504       C  0.33154281  0.54613623  0.81557865    -0.09300
C1505       C  0.35881978  0.63044234  0.76847068     0.64900
H1506       H  0.32631496  0.59702372  0.71541482     0.10400
C1507       C  0.30496803  0.49519952  0.78719977     0.63300
H1508       H  0.33378947  0.53184001  0.84341564     0.07700
F1509       F  0.44341869  0.58986841  0.82524249    -0.19700
F1510       F  0.42999765  0.53847201  0.85062221    -0.16000
F1511       F  0.45025704  0.57704454  0.89037435    -0.19400
F1512       F  0.31309997  0.58786011  0.88723109    -0.22800
F1513       F  0.31917060  0.63816037  0.85386300    -0.24300
F1514       F  0.32472204  0.63679835  0.92112171    -0.18300
F1515       F  0.31100363  0.48002447  0.82371450    -0.20800
F1516       F  0.31369539  0.47388317  0.75628938    -0.21900
F1517       F  0.27875075  0.49680981  0.78472359    -0.19100
F1518       F  0.35182078  0.64695280  0.73323405    -0.19200
F1519       F  0.38425997  0.62226011  0.76544972    -0.23000
F1520       F  0.35587164  0.65378073  0.80032611    -0.24600
loop_ 
_geom_bond_atom_site_label_1 
_geom_bond_atom_site_label_2 
_geom_bond_distance 
_geom_bond_site_symmetry_2 
_ccdc_geom_bond_type 
O1           Cu9   2.022       .  S
O1           C11   1.276   1_554  A
O2           Cu9   2.005       .  S
O2           C12   1.281       .  A
O3           Cu9   1.998       .  S
O3           C13   1.275       .  A
O4           Cu9   2.030       .  S
O4           C14   1.279       .  A
O5          Cu10   2.046       .  S
O5           C14   1.282       .  A
O6          Cu10   2.007       .  S
O6           C13   1.278       .  A
O7          Cu10   2.019       .  S
O7           C12   1.276       .  A
O8          Cu10   2.016   1_556  S
O8           C11   1.281       .  A
Cu9         Cu10   2.370       .  S
C11         C203   1.488       .  S
C12         C215   1.486       .  S
C13         C314   1.461       .  S
C14          C28   1.490       .  S
O15         Cu23   2.007       .  S
O15          C25   1.281       .  A
O16         Cu23   2.035       .  S
O16          C26   1.279       .  A
O17         Cu23   1.986       .  S
O17          C27   1.274       .  A
O18         Cu23   2.037       .  S
O18          C28   1.280       .  A
O19         Cu24   2.038       .  S
O19          C28   1.282       .  A
O20         Cu24   2.006       .  S
O20          C27   1.277       .  A
O21         Cu24   1.998       .  S
O21          C26   1.279       .  A
O22         Cu24   2.002       .  S
O22          C25   1.274       .  A
Cu23        Cu24   2.373       .  S
C25          C36   1.475   1_554  S
C26          C48   1.487       .  S
C27         C438   1.454       .  S
C29          C30   1.551       .  S
C29          C35   1.526       .  S
C29          C33   1.534       .  S
C29        C1493   1.536       .  S
C30          H37   1.082       .  S
C30          C31   1.374       .  D
C31        C1470   1.501       .  S
C31          C32   1.542       .  S
C32          C36   1.537       .  S
C32          C34   1.537       .  S
C32          H38   1.107       .  S
C33          H39   1.086       .  S
C33          C34   1.363       .  D
C34        C1429   1.472       .  S
C35          H40   1.087       .  S
C35          C36   1.359       .  D
C41          C42   1.541       .  S
C41          C47   1.527       .  S
C41          C45   1.550       .  S
C41        C1397   1.538       .  S
C42          H49   1.080       .  S
C42          C43   1.365       .  D
C43        C1374   1.496       .  S
C43          C44   1.548       .  S
C44          C48   1.544       .  S
C44          C46   1.533       .  S
C44          H50   1.111       .  S
C45          H51   1.084       .  S
C45          C46   1.359       .  D
C46        C1333   1.465       .  S
C47          H52   1.087       .  S
C47          C48   1.367       .  D
N53          N54   1.321       .  A
N53          C57   1.342       .  A
N53         Cu61   2.065       .  S
N54          C55   1.344       .  A
N54         Cu60   2.062       .  S
C55          C56   1.382       .  A
C55          H58   1.081       .  S
C56        C1502   1.473       .  S
C56          C57   1.382       .  A
C57          H59   1.082       .  S
Cu60         N63   2.061       .  S
Cu61         N71   2.065       .  S
Cu62         N64   2.063       .  S
Cu62         N70   2.063       .  S
N63          N64   1.322       .  A
N63          C67   1.344       .  A
N64          C65   1.342       .  A
C65          C66   1.379       .  A
C65          H68   1.082       .  S
C66         C259   1.457       .  S
C66          C67   1.379       .  A
C67          H69   1.082       .  S
N70          N71   1.322       .  A
N70          C74   1.344       .  A
N71          C72   1.343       .  A
C72          C73   1.382       .  A
C72          H75   1.082       .  S
C73        C1406   1.469       .  S
C73          C74   1.380       .  A
C74          H76   1.082       .  S
C77          C78   1.530   1_565  S
C77          C83   1.559       .  S
C77          C81   1.532       .  S
C77        C1301   1.547       .  S
C78          H85   1.083       .  S
C78          C79   1.367   1_545  D
C79         C149   1.487   1_565  S
C79          C80   1.550       .  S
C80          C84   1.543       .  S
C80          C82   1.543       .  S
C80          H86   1.107       .  S
C81          H87   1.087       .  S
C81          C82   1.352       .  D
C82        C1269   1.472       .  S
C83          H88   1.079       .  S
C83          C84   1.371       .  D
C84        C1461   1.500       .  S
C89          C90   1.535       .  S
C89          C95   1.557       .  S
C89          C93   1.523       .  S
C89        C1246   1.538       .  S
C90          H97   1.080       .  S
C90          C91   1.363       .  D
C91         C150   1.488       .  S
C91          C92   1.536       .  S
C92          C96   1.556       .  S
C92          C94   1.542       .  S
C92          H98   1.109       .  S
C93          H99   1.088       .  S
C93          C94   1.345       .  D
C94        C1205   1.455       .  S
C95         H100   1.078       .  S
C95          C96   1.380       .  D
C96        C1365   1.516       .  S
N101        N102   1.320       .  A
N101        C105   1.344       .  A
N101       Cu109   2.062       .  S
N102        C103   1.339       .  A
N102       Cu108   2.051       .  S
C103        C104   1.381       .  A
C103        H106   1.082       .  S
C104       C1237   1.476       .  S
C104        C105   1.385       .  A
C105        H107   1.078       .  S
Cu108       N111   2.051       .  S
Cu109       N119   2.103       .  S
Cu110       N112   2.094       .  S
Cu110       N118   2.095       .  S
N111        N112   1.322       .  A
N111        C115   1.343       .  A
N112        C113   1.349       .  A
C113        C114   1.388       .  A
C113        H116   1.082       .  S
C114        C383   1.466       .  S
C114        C115   1.378       .  A
C115        H117   1.082       .  S
N118        N119   1.359       .  A
N118        C122   1.338       .  A
N119        C120   1.383   1_545  A
C120        C121   1.394       .  A
C120        H123   1.071       .  S
C121       C1310   1.483       .  S
C121        C122   1.387   1_565  A
C122        H124   1.080       .  S
O125       Cu133   2.068       .  S
O125        C135   1.285       .  A
O126       Cu133   2.026       .  S
O126        C136   1.280       .  A
O127       Cu133   1.993   1_556  S
O127        C137   1.279   1_546  A
O128       Cu133   2.016       .  S
O128        C138   1.276       .  A
O129       Cu134   2.037       .  S
O129        C138   1.284       .  A
O130       Cu134   2.038   1_565  S
O130        C137   1.280       .  A
O131       Cu134   1.979       .  S
O131        C136   1.273       .  A
O132       Cu134   2.052       .  S
O132        C135   1.282       .  A
Cu133      Cu134   2.369       .  S
C135        C151   1.508       .  S
C136        C362   1.461       .  S
C137        C160   1.490   1_554  S
C138        C172   1.495       .  S
O139       Cu147   2.020   1_556  S
O139        C149   1.281       .  A
O140       Cu147   2.036       .  S
O140        C150   1.279       .  A
O141       Cu147   2.064       .  S
O141        C151   1.283       .  A
O142       Cu147   2.019       .  S
O142        C152   1.278       .  A
O143       Cu148   2.019       .  S
O143        C152   1.278       .  A
O144       Cu148   2.056       .  S
O144        C151   1.283       .  A
O145       Cu148   2.008       .  S
O145        C150   1.279       .  A
O146       Cu148   2.027   1_565  S
O146        C149   1.277   1_564  A
Cu147      Cu148   2.368       .  S
C152        C486   1.471       .  S
C153        C154   1.542       .  S
C153        C159   1.521       .  S
C153        C157   1.537       .  S
C153       C1182   1.547       .  S
C154        H161   1.082       .  S
C154        C155   1.373       .  D
C155       C1141   1.506       .  S
C155        C156   1.548       .  S
C156        C160   1.548       .  S
C156        C158   1.546       .  S
C156        H162   1.097   1_556  S
C157        H163   1.084       .  S
C157        C158   1.375       .  D
C158       C1278   1.501       .  S
C159        H164   1.087   1_565  S
C159        C160   1.363       .  D
C165        C166   1.541       .  S
C165        C171   1.537       .  S
C165        C169   1.539       .  S
C165       C1109   1.546       .  S
C166        H173   1.085       .  S
C166        C167   1.372       .  D
C167       C1077   1.512       .  S
C167        C168   1.541       .  S
C168        C172   1.547       .  S
C168        C170   1.547       .  S
C168        H174   1.104       .  S
C169        H175   1.079       .  S
C169        C170   1.365       .  D
C170       C1214   1.489       .  S
C171        H176   1.084       .  S
C171        C172   1.365       .  D
N177        N178   1.322       .  A
N177        C181   1.343       .  A
N177       Cu185   2.066       .  S
N178        C179   1.348       .  A
N178       Cu184   2.086       .  S
C179        C180   1.387       .  A
C179        H182   1.081       .  S
C180       C1118   1.479       .  S
C180        C181   1.380       .  A
C181        H183   1.082       .  S
Cu184       N187   2.084       .  S
Cu185       N195   2.066       .  S
Cu186       N188   2.066       .  S
Cu186       N194   2.066       .  S
N187        N188   1.323       .  A
N187        C191   1.345   1_545  A
N188        C189   1.344       .  A
C189        C190   1.381       .  A
C189        H192   1.082       .  S
C190        C400   1.466       .  S
C190        C191   1.381   1_545  A
C191        H193   1.078       .  S
N194        N195   1.321       .  A
N194        C198   1.344       .  A
N195        C196   1.344       .  A
C196        C197   1.381       .  A
C196        H199   1.082       .  S
C197       C1173   1.472       .  S
C197        C198   1.381       .  A
C198        H200   1.081       .  S
C201        C202   1.525       .  S
C201        C207   1.545       .  S
C201        C205   1.533       .  S
C201       C1045   1.537       .  S
C202        H209   1.088       .  S
C202        C203   1.361       .  D
C203        C204   1.550       .  S
C204        C208   1.546       .  S
C204        C206   1.553       .  S
C204        H210   1.110       .  S
C205        H211   1.082       .  S
C205        C206   1.357       .  D
C206       C1438   1.485       .  S
C207        H212   1.080       .  S
C207        C208   1.374       .  D
C208       C1150   1.491       .  S
C213        C214   1.519       .  S
C213        C219   1.540       .  S
C213        C217   1.549       .  S
C213       C1013   1.536       .  S
C214        H221   1.087       .  S
C214        C215   1.359       .  D
C215        C216   1.550       .  S
C216        C220   1.542       .  S
C216        C218   1.539       .  S
C216        H222   1.105       .  S
C217        H223   1.079       .  S
C217        C218   1.369       .  D
C218       C1342   1.488       .  S
C219        H224   1.084       .  S
C219        C220   1.370       .  D
C220       C1086   1.497       .  S
N225        N226   1.322       .  A
N225        C229   1.344       .  A
N225       Cu233   2.080       .  S
N226        C227   1.342       .  A
N226       Cu232   2.052       .  S
C227        C228   1.378       .  A
C227        H230   1.081       .  S
C228       C1054   1.472       .  S
C228        C229   1.385       .  A
C229        H231   1.082       .  S
Cu232       N235   2.052       .  S
Cu233       N243   2.080       .  S
Cu234       N236   2.051       .  S
Cu234       N242   2.051       .  S
N235        N236   1.320       .  A
N235        C239   1.341       .  A
N236        C237   1.341       .  A
C237        C238   1.378       .  A
C237        H240   1.082       .  S
C238        C275   1.453       .  S
C238        C239   1.379       .  A
C239        H241   1.082       .  S
N242        N243   1.322       .  A
N242        C246   1.341       .  A
N243        C244   1.345       .  A
C244        C245   1.384       .  A
C244        H247   1.082       .  S
C245       C1022   1.467       .  S
C245        C246   1.378       .  A
C246        H248   1.082       .  S
O249       Cu257   2.006       .  S
O249        C259   1.277       .  A
O250       Cu257   2.054       .  S
O250        C260   1.283       .  A
O251       Cu257   2.025       .  S
O251        C261   1.277       .  A
O252       Cu257   2.016       .  S
O252        C262   1.281       .  A
O253       Cu258   2.034       .  S
O253        C262   1.279       .  A
O254       Cu258   2.014       .  S
O254        C261   1.282       .  A
O255       Cu258   2.045       .  S
O255        C260   1.281       .  A
O256       Cu258   1.994       .  S
O256        C259   1.275       .  A
Cu257      Cu258   2.371       .  S
C260        C276   1.499       .  S
C261        C420   1.487       .  S
C262        C408   1.492       .  S
O263       Cu271   2.025       .  S
O263        C273   1.278       .  A
O264       Cu271   2.006       .  S
O264        C274   1.281       .  A
O265       Cu271   1.995       .  S
O265        C275   1.276       .  A
O266       Cu271   2.046       .  S
O266        C276   1.281   1_655  A
O267       Cu272   2.052       .  S
O267        C276   1.283   1_655  A
O268       Cu272   1.994       .  S
O268        C275   1.276       .  A
O269       Cu272   2.019       .  S
O269        C274   1.277       .  A
O270       Cu272   2.015       .  S
O270        C273   1.281       .  A
Cu271      Cu272   2.371       .  S
C273        C291   1.494       .  S
C274        C279   1.492       .  S
C277        C278   1.544       .  S
C277        C283   1.542       .  S
C277        C281   1.534       .  S
C277        C990   1.554       .  S
C278        H285   1.084       .  S
C278        C279   1.365       .  D
C279        C280   1.545       .  S
C280        C284   1.557       .  S
C280        C282   1.533       .  S
C280        H286   1.105       .  S
C281        H287   1.088       .  S
C281        C282   1.357       .  D
C282        C917   1.468       .  S
C283        H288   1.074       .  S
C283        C284   1.376       .  D
C284        C949   1.515       .  S
C289        C290   1.551       .  S
C289        C295   1.532       .  S
C289        C293   1.531       .  S
C289        C894   1.549       .  S
C290        H297   1.081       .  S
C290        C291   1.370       .  D
C291        C292   1.544       .  S
C292        C296   1.552       .  S
C292        C294   1.545       .  S
C292        H298   1.103       .  S
C293        H299   1.086       .  S
C293        C294   1.362       .  D
C294        C821   1.485       .  S
C295        H300   1.081       .  S
C295        C296   1.366       .  D
C296        C853   1.496       .  S
N301        N302   1.320       .  A
N301        C305   1.343       .  A
N301       Cu309   2.083       .  S
N302        C303   1.345       .  A
N302       Cu308   2.072       .  S
C303        C304   1.391       .  A
C303        H306   1.075       .  S
C304        C885   1.501       .  S
C304        C305   1.393       .  A
C305        H307   1.082       .  S
Cu308       N311   2.072       .  S
Cu309       N319   2.082   1_554  S
Cu310       N312   2.054   1_556  S
Cu310       N318   2.053       .  S
N311        N312   1.322       .  A
N311        C315   1.344       .  A
N312        C313   1.342       .  A
C313        C314   1.379       .  A
C313        H316   1.082   1_554  S
C314        C315   1.383       .  A
C315        H317   1.082       .  S
N318        N319   1.320       .  A
N318        C322   1.342       .  A
N319        C320   1.346       .  A
C320        C321   1.389       .  A
C320        H323   1.082       .  S
C321        C981   1.480       .  S
C321        C322   1.381       .  A
C322        H324   1.081       .  S
C325        C326   1.544       .  S
C325        C331   1.520       .  S
C325        C329   1.527       .  S
C325        C789   1.541       .  S
C326        H333   1.084       .  S
C326        C327   1.377       .  D
C327        C958   1.503       .  S
C327        C328   1.564       .  S
C328        C332   1.560       .  S
C328        C330   1.556       .  S
C328        H334   1.102       .  S
C329        H335   1.080       .  S
C329        C330   1.369       .  D
C330        C757   1.514       .  S
C331        H336   1.087       .  S
C331        C332   1.361       .  D
C332        C398   1.502       .  S
C337        C338   1.539       .  S
C337        C343   1.528       .  S
C337        C341   1.546       .  S
C337        C734   1.549       .  S
C338        H345   1.083       .  S
C338        C339   1.374       .  D
C339        C862   1.518       .  S
C339        C340   1.550       .  S
C340        C344   1.544       .  S
C340        C342   1.542       .  S
C340        H346   1.099       .  S
C341        H347   1.083       .  S
C341        C342   1.373       .  D
C342        C693   1.493       .  S
C343        H348   1.085       .  S
C343        C344   1.360       .  D
C344        C397   1.488       .  S
N349        N350   1.323   1_565  A
N349        C353   1.349       .  A
N349       Cu357   2.098   1_556  S
N350        C351   1.342       .  A
N350       Cu356   2.059   1_556  S
C351        C352   1.378   1_545  A
C351        H354   1.081       .  S
C352        C798   1.480       .  S
C352        C353   1.388       .  A
C353        H355   1.082       .  S
Cu356       N359   2.057       .  S
Cu357       N367   2.097       .  S
Cu358       N360   2.068   1_565  S
Cu358       N366   2.068       .  S
N359        N360   1.321       .  A
N359        C363   1.346       .  A
N360        C361   1.340       .  A
C361        C362   1.381       .  A
C361        H364   1.081       .  S
C362        C363   1.381       .  A
C363        H365   1.082   1_554  S
N366        N367   1.322       .  A
N366        C370   1.345   1_565  A
N367        C368   1.348   1_565  A
C368        C369   1.389       .  A
C368        H371   1.082       .  S
C369        C725   1.490       .  S
C369        C370   1.385       .  A
C370        H372   1.079       .  S
O373       Cu381   2.018       .  S
O373        C383   1.278       .  A
O374       Cu381   2.059       .  S
O374        C384   1.284       .  A
O375       Cu381   1.997       .  S
O375        C385   1.277   1_545  A
O376       Cu381   2.030       .  S
O376        C386   1.278       .  A
O377       Cu382   2.022       .  S
O377        C386   1.281       .  A
O378       Cu382   2.021   1_565  S
O378        C385   1.279       .  A
O379       Cu382   2.055       .  S
O379        C384   1.282       .  A
O380       Cu382   2.008       .  S
O380        C383   1.277       .  A
Cu381      Cu382   2.370       .  S
C384        C399   1.506   1_455  S
C385        C451   1.478       .  S
C386        C463   1.489       .  S
O387       Cu395   2.026       .  S
O387        C397   1.278       .  A
O388       Cu395   2.023   1_565  S
O388        C398   1.284       .  A
O389       Cu395   2.048       .  S
O389        C399   1.281       .  A
O390       Cu395   2.005       .  S
O390        C400   1.277       .  A
O391       Cu396   2.013       .  S
O391        C400   1.278   1_565  A
O392       Cu396   2.069       .  S
O392        C399   1.285   1_565  A
O393       Cu396   2.038       .  S
O393        C398   1.279       .  A
O394       Cu396   2.015   1_545  S
O394        C397   1.281       .  A
Cu395      Cu396   2.368   1_545  S
C401        C402   1.540       .  S
C401        C407   1.527       .  S
C401        C405   1.545       .  S
C401        C670   1.544       .  S
C402        H409   1.081       .  S
C402        C403   1.366       .  D
C403        C629   1.500       .  S
C403        C404   1.550       .  S
C404        C408   1.545       .  S
C404        C406   1.553       .  S
C404        H410   1.108       .  S
C405        H411   1.073       .  S
C405        C406   1.366       .  D
C406        C926   1.504       .  S
C407        H412   1.087       .  S
C407        C408   1.364       .  D
C413        C414   1.553       .  S
C413        C419   1.530       .  S
C413        C417   1.538       .  S
C413        C597   1.541       .  S
C414        H421   1.074       .  S
C414        C415   1.371       .  D
C415        C565   1.503       .  S
C415        C416   1.546       .  S
C416        C420   1.545       .  S
C416        C418   1.530       .  S
C416        H422   1.111       .  S
C417        H423   1.087       .  S
C417        C418   1.354       .  D
C418        C830   1.460       .  S
C419        H424   1.083       .  S
C419        C420   1.364       .  D
N425        N426   1.321       .  A
N425        C429   1.345       .  A
N425       Cu433   2.075       .  S
N426        C427   1.342       .  A
N426       Cu432   2.053       .  S
C427        C428   1.379       .  A
C427        H430   1.081       .  S
C428        C606   1.473       .  S
C428        C429   1.385       .  A
C429        H431   1.082       .  S
Cu432       N435   2.051       .  S
Cu433       N443   2.075       .  S
Cu434       N436   2.064       .  S
Cu434       N442   2.064   1_554  S
N435        N436   1.322       .  A
N435        C439   1.343       .  A
N436        C437   1.341       .  A
C437        C438   1.380       .  A
C437        H440   1.082       .  S
C438        C439   1.377       .  A
C439        H441   1.082       .  S
N442        N443   1.322   1_556  A
N442        C446   1.344       .  A
N443        C444   1.344   1_554  A
C444        C445   1.383       .  A
C444        H447   1.082       .  S
C445        C661   1.474       .  S
C445        C446   1.379       .  A
C446        H448   1.080       .  S
C449        C450   1.548       .  S
C449        C455   1.542       .  S
C449        C453   1.530       .  S
C449        C542   1.540       .  S
C450        H457   1.084   1_565  S
C450        C451   1.371       .  D
C451        C452   1.532       .  S
C452        C456   1.547       .  S
C452        C454   1.533       .  S
C452        H458   1.110       .  S
C453        H459   1.086       .  S
C453        C454   1.351       .  D
C454        C766   1.455       .  S
C455        H460   1.085       .  S
C455        C456   1.373       .  D
C456        C638   1.507       .  S
C461        C462   1.549       .  S
C461        C467   1.539       .  S
C461        C465   1.527       .  S
C461        C510   1.539       .  S
C462        H469   1.082       .  S
C462        C463   1.372       .  D
C463        C464   1.546       .  S
C464        C468   1.544       .  S
C464        C466   1.547       .  S
C464        H470   1.108       .  S
C465        H471   1.086       .  S
C465        C466   1.350       .  D
C466        C702   1.470       .  S
C467        H472   1.085       .  S
C467        C468   1.370       .  D
C468        C574   1.502       .  S
N473        N474   1.322       .  A
N473        C477   1.344       .  A
N473       Cu481   2.064   1_556  S
N474        C475   1.345       .  A
N474       Cu480   2.084       .  S
C475        C476   1.387       .  A
C475        H478   1.079       .  S
C476        C533   1.482       .  S
C476        C477   1.381       .  A
C477        H479   1.082       .  S
Cu480       N483   2.084   1_556  S
Cu481       N491   2.064       .  S
Cu482       N484   2.082       .  S
Cu482       N490   2.081       .  S
N483        N484   1.323       .  A
N483        C487   1.347       .  A
N484        C485   1.347       .  A
C485        C486   1.384       .  A
C485        H488   1.082       .  S
C486        C487   1.384       .  A
C487        H489   1.082   1_554  S
N490        N491   1.322       .  A
N490        C494   1.344       .  A
N491        C492   1.345       .  A
C492        C493   1.383       .  A
C492        H495   1.082       .  S
C493        C501   1.480       .  S
C493        C494   1.384       .  A
C494        H496   1.077       .  S
C497        C498   1.401       .  A
C497        C502   1.403       .  A
C497        H507   1.084       .  S
C498        C503   1.481       .  S
C498        C499   1.416       .  A
C499        C504   1.519       .  S
C499        C500   1.408       .  A
C500        C501   1.405       .  A
C500        H505   1.083       .  S
C501        C502   1.418       .  A
C502        C506   1.519       .  S
C503        C508   1.414       .  A
C503        C512   1.395       .  A
C504        F520   1.384       .  S
C504        F521   1.380       .  S
C504        F522   1.384       .  S
C506        F517   1.377       .  S
C506        F518   1.385       .  S
C506        F519   1.384       .  S
C508        C513   1.519       .  S
C508        C509   1.408       .  A
C509        C510   1.414       .  A
C509        H514   1.079       .  S
C510        C511   1.436       .  A
C511        C515   1.528       .  S
C511        C512   1.399       .  A
C512        H516   1.086       .  S
C513        F526   1.383       .  S
C513        F527   1.382       .  S
C513        F528   1.384       .  S
C515        F523   1.385       .  S
C515        F524   1.375       .  S
C515        F525   1.384       .  S
C529        C530   1.399       .  A
C529        C534   1.404       .  A
C529        H539   1.084   1_545  S
C530        C535   1.484       .  S
C530        C531   1.416       .  A
C531        C536   1.518       .  S
C531        C532   1.409       .  A
C532        C533   1.405       .  A
C532        H537   1.083       .  S
C533        C534   1.418       .  A
C534        C538   1.517   1_545  S
C535        C540   1.415       .  A
C535        C544   1.396   1_545  A
C536        F552   1.384       .  S
C536        F553   1.380       .  S
C536        F554   1.385       .  S
C538        F549   1.377   1_565  S
C538        F550   1.384       .  S
C538        F551   1.383       .  S
C540        C545   1.519       .  S
C540        C541   1.407       .  A
C541        C542   1.412   1_545  A
C541        H546   1.080       .  S
C542        C543   1.436       .  A
C543        C547   1.527       .  S
C543        C544   1.402       .  A
C544        H548   1.086       .  S
C545        F558   1.382       .  S
C545        F559   1.382       .  S
C545        F560   1.382       .  S
C547        F555   1.384       .  S
C547        F556   1.376       .  S
C547        F557   1.384       .  S
C561        C562   1.400       .  A
C561        C566   1.408       .  A
C561        H571   1.083       .  S
C562        C567   1.494       .  S
C562        C563   1.418       .  A
C563        C568   1.516       .  S
C563        C564   1.411       .  A
C564        C565   1.407       .  A
C564        H569   1.085       .  S
C565        C566   1.431       .  A
C566        C570   1.526       .  S
C567        C572   1.418       .  A
C567        C576   1.404       .  A
C568        F584   1.383       .  S
C568        F585   1.382       .  S
C568        F586   1.384       .  S
C570        F581   1.385       .  S
C570        F582   1.382       .  S
C570        F583   1.379       .  S
C572        C577   1.518       .  S
C572        C573   1.410       .  A
C573        C574   1.405       .  A
C573        H578   1.079       .  S
C574        C575   1.420       .  A
C575        C579   1.515       .  S
C575        C576   1.408       .  A
C576        H580   1.084       .  S
C577        F590   1.382       .  S
C577        F591   1.382       .  S
C577        F592   1.377       .  S
C579        F587   1.383       .  S
C579        F588   1.383       .  S
C579        F589   1.384       .  S
C593        C594   1.396       .  A
C593        C598   1.403       .  A
C593        H603   1.083       .  S
C594        C599   1.479       .  S
C594        C595   1.412       .  A
C595        C600   1.519       .  S
C595        C596   1.405       .  A
C596        C597   1.414       .  A
C596        H601   1.076       .  S
C597        C598   1.437       .  A
C598        C602   1.534       .  S
C599        C604   1.417       .  A
C599        C608   1.402       .  A
C600        F616   1.382       .  S
C600        F617   1.383       .  S
C600        F618   1.381       .  S
C602        F613   1.385       .  S
C602        F614   1.381       .  S
C602        F615   1.378       .  S
C604        C609   1.520       .  S
C604        C605   1.405       .  A
C605        C606   1.402       .  A
C605        H610   1.083       .  S
C606        C607   1.416       .  A
C607        C611   1.519       .  S
C607        C608   1.404       .  A
C608        H612   1.083       .  S
C609        F622   1.385       .  S
C609        F623   1.383       .  S
C609        F624   1.380       .  S
C611        F619   1.384       .  S
C611        F620   1.384       .  S
C611        F621   1.379       .  S
C625        C626   1.397       .  A
C625        C630   1.406       .  A
C625        H635   1.083       .  S
C626        C631   1.492       .  S
C626        C627   1.415       .  A
C627        C632   1.517       .  S
C627        C628   1.416       .  A
C628        C629   1.408       .  A
C628        H633   1.083       .  S
C629        C630   1.430       .  A
C630        C634   1.525       .  S
C631        C636   1.416       .  A
C631        C640   1.405       .  A
C632        F648   1.383       .  S
C632        F649   1.380       .  S
C632        F650   1.384       .  S
C634        F645   1.385       .  S
C634        F646   1.380       .  S
C634        F647   1.376       .  S
C636        C641   1.521       .  S
C636        C637   1.407       .  A
C637        C638   1.407       .  A
C637        H642   1.077       .  S
C638        C639   1.423       .  A
C639        C643   1.517       .  S
C639        C640   1.412       .  A
C640        H644   1.084       .  S
C641        F654   1.383       .  S
C641        F655   1.381       .  S
C641        F656   1.379       .  S
C643        F651   1.383       .  S
C643        F652   1.383       .  S
C643        F653   1.384       .  S
C657        C658   1.401       .  A
C657        C662   1.404       .  A
C657        H667   1.083       .  S
C658        C663   1.479       .  S
C658        C659   1.415       .  A
C659        C664   1.517       .  S
C659        C660   1.407       .  A
C660        C661   1.403       .  A
C660        H665   1.083       .  S
C661        C662   1.416       .  A
C662        C666   1.519       .  S
C663        C668   1.412       .  A
C663        C672   1.400       .  A
C664        F680   1.382       .  S
C664        F681   1.383       .  S
C664        F682   1.384       .  S
C666        F677   1.381       .  S
C666        F678   1.385       .  S
C666        F679   1.383       .  S
C668        C673   1.522       .  S
C668        C669   1.400       .  A
C669        C670   1.413       .  A
C669        H674   1.081       .  S
C670        C671   1.430       .  A
C671        C675   1.519       .  S
C671        C672   1.410       .  A
C672        H676   1.085       .  S
C673        F686   1.384       .  S
C673        F687   1.383       .  S
C673        F688   1.382       .  S
C675        F683   1.383       .  S
C675        F684   1.380       .  S
C675        F685   1.384       .  S
C689        C690   1.407       .  A
C689        C694   1.405       .  A
C689        H699   1.083   1_655  S
C690        C695   1.478   1_655  S
C690        C691   1.404       .  A
C691        C696   1.511       .  S
C691        C692   1.398       .  A
C692        C693   1.413       .  A
C692        H697   1.084       .  S
C693        C694   1.422       .  A
C694        C698   1.521       .  S
C695        C700   1.405       .  A
C695        C704   1.406       .  A
C696        F712   1.383       .  S
C696        F713   1.383       .  S
C696        F714   1.383       .  S
C698        F709   1.381       .  S
C698        F710   1.384   1_655  S
C698        F711   1.382       .  S
C700        C705   1.511       .  S
C700        C701   1.404       .  A
C701        C702   1.405       .  A
C701        H706   1.083       .  S
C702        C703   1.413       .  A
C703        C707   1.516       .  S
C703        C704   1.405       .  A
C704        H708   1.084   1_455  S
C705        F718   1.383       .  S
C705        F719   1.382       .  S
C705        F720   1.382       .  S
C707        F715   1.383       .  S
C707        F716   1.382       .  S
C707        F717   1.385       .  S
C721        C722   1.398       .  A
C721        C726   1.407       .  A
C721        H731   1.083       .  S
C722        C727   1.488       .  S
C722        C723   1.415       .  A
C723        C728   1.518       .  S
C723        C724   1.410       .  A
C724        C725   1.405       .  A
C724        H729   1.083   1_545  S
C725        C726   1.424       .  A
C726        C730   1.518       .  S
C727        C732   1.411       .  A
C727        C736   1.395       .  A
C728        F744   1.383   1_545  S
C728        F745   1.383       .  S
C728        F746   1.384   1_545  S
C730        F741   1.384       .  S
C730        F742   1.379       .  S
C730        F743   1.383       .  S
C732        C737   1.520       .  S
C732        C733   1.408       .  A
C733        C734   1.415       .  A
C733        H738   1.076       .  S
C734        C735   1.434       .  A
C735        C739   1.518       .  S
C735        C736   1.408       .  A
C736        H740   1.085       .  S
C737        F750   1.384       .  S
C737        F751   1.382       .  S
C737        F752   1.383       .  S
C739        F747   1.379       .  S
C739        F748   1.384       .  S
C739        F749   1.378       .  S
C753        C754   1.398       .  A
C753        C758   1.400       .  A
C753        H763   1.084   1_655  S
C754        C759   1.462   1_655  S
C754        C755   1.402       .  A
C755        C760   1.514       .  S
C755        C756   1.394       .  A
C756        C757   1.419       .  A
C756        H761   1.075       .  S
C757        C758   1.425       .  A
C758        C762   1.509       .  S
C759        C764   1.408       .  A
C759        C768   1.406       .  A
C760        F776   1.383       .  S
C760        F777   1.382   1_655  S
C760        F778   1.383       .  S
C762        F773   1.385       .  S
C762        F774   1.383       .  S
C762        F775   1.370       .  S
C764        C769   1.517       .  S
C764        C765   1.400       .  A
C765        C766   1.403       .  A
C765        H770   1.083       .  S
C766        C767   1.406       .  A
C767        C771   1.518       .  S
C767        C768   1.394       .  A
C768        H772   1.084       .  S
C769        F782   1.384       .  S
C769        F783   1.381       .  S
C769        F784   1.381       .  S
C771        F779   1.385       .  S
C771        F780   1.381       .  S
C771        F781   1.383       .  S
C785        C786   1.391       .  A
C785        C790   1.400       .  A
C785        H795   1.086       .  S
C786        C791   1.483       .  S
C786        C787   1.412       .  A
C787        C792   1.518       .  S
C787        C788   1.412       .  A
C788        C789   1.415       .  A
C788        H793   1.078       .  S
C789        C790   1.440       .  A
C790        C794   1.529       .  S
C791        C796   1.418       .  A
C791        C800   1.400   1_565  A
C792        F808   1.382       .  S
C792        F809   1.382       .  S
C792        F810   1.385       .  S
C794        F805   1.384       .  S
C794        F806   1.384       .  S
C794        F807   1.374       .  S
C796        C801   1.520       .  S
C796        C797   1.408       .  A
C797        C798   1.402       .  A
C797        H802   1.083       .  S
C798        C799   1.419   1_565  A
C799        C803   1.519       .  S
C799        C800   1.407       .  A
C800        H804   1.083       .  S
C801        F814   1.385       .  S
C801        F815   1.382       .  S
C801        F816   1.382       .  S
C803        F811   1.385       .  S
C803        F812   1.383       .  S
C803        F813   1.381       .  S
C817        C818   1.399       .  A
C817        C822   1.396   1_455  A
C817        H827   1.085       .  S
C818        C823   1.463       .  S
C818        C819   1.406   1_455  A
C819        C824   1.516   1_655  S
C819        C820   1.397       .  A
C820        C821   1.412       .  A
C820        H825   1.082       .  S
C821        C822   1.414       .  A
C822        C826   1.510       .  S
C823        C828   1.420       .  A
C823        C832   1.402       .  A
C824        F840   1.382   1_455  S
C824        F841   1.383   1_455  S
C824        F842   1.383       .  S
C826        F837   1.380       .  S
C826        F838   1.384       .  S
C826        F839   1.380       .  S
C828        C833   1.525       .  S
C828        C829   1.391       .  A
C829        C830   1.394       .  A
C829        H834   1.082       .  S
C830        C831   1.412       .  A
C831        C835   1.513       .  S
C831        C832   1.402       .  A
C832        H836   1.083       .  S
C833        F846   1.386       .  S
C833        F847   1.382       .  S
C833        F848   1.377       .  S
C835        F843   1.380       .  S
C835        F844   1.382       .  S
C835        F845   1.385       .  S
C849        C850   1.407       .  A
C849        C854   1.415       .  A
C849        H859   1.083       .  S
C850        C855   1.493       .  S
C850        C851   1.415       .  A
C851        C856   1.521       .  S
C851        C852   1.405       .  A
C852        C853   1.405       .  A
C852        H857   1.079       .  S
C853        C854   1.415       .  A
C854        C858   1.514       .  S
C855        C860   1.413       .  A
C855        C864   1.405       .  A
C856        F872   1.382       .  S
C856        F873   1.383       .  S
C856        F874   1.385       .  S
C858        F869   1.381       .  S
C858        F870   1.385       .  S
C858        F871   1.383       .  S
C860        C865   1.521       .  S
C860        C861   1.401       .  A
C861        C862   1.410       .  A
C861        H866   1.072       .  S
C862        C863   1.426       .  A
C863        C867   1.516       .  S
C863        C864   1.415       .  A
C864        H868   1.084       .  S
C865        F878   1.384       .  S
C865        F879   1.381       .  S
C865        F880   1.379       .  S
C867        F875   1.384       .  S
C867        F876   1.383       .  S
C867        F877   1.383       .  S
C881        C882   1.398       .  A
C881        C886   1.410       .  A
C881        H891   1.083       .  S
C882        C887   1.483       .  S
C882        C883   1.412       .  A
C883        C888   1.520       .  S
C883        C884   1.405       .  A
C884        C885   1.409       .  A
C884        H889   1.082       .  S
C885        C886   1.429       .  A
C886        C890   1.517       .  S
C887        C892   1.409       .  A
C887        C896   1.394       .  A
C888        F904   1.382       .  S
C888        F905   1.382       .  S
C888        F906   1.385       .  S
C890        F901   1.382       .  S
C890        F902   1.385       .  S
C890        F903   1.382       .  S
C892        C897   1.519       .  S
C892        C893   1.408       .  A
C893        C894   1.416       .  A
C893        H898   1.074       .  S
C894        C895   1.440       .  A
C895        C899   1.533       .  S
C895        C896   1.407       .  A
C896        H900   1.083       .  S
C897        F910   1.384       .  S
C897        F911   1.382       .  S
C897        F912   1.382       .  S
C899        F907   1.385       .  S
C899        F908   1.379       .  S
C899        F909   1.376       .  S
C913        C914   1.404       .  A
C913        C918   1.405       .  A
C913        H923   1.082       .  S
C914        C919   1.477   1_655  S
C914        C915   1.424       .  A
C915        C920   1.526   1_655  S
C915        C916   1.394       .  A
C916        C917   1.395       .  A
C916        H921   1.083       .  S
C917        C918   1.408       .  A
C918        C922   1.511       .  S
C919        C924   1.414       .  A
C919        C928   1.394       .  A
C920        F936   1.381       .  S
C920        F937   1.383       .  S
C920        F938   1.385   1_455  S
C922        F933   1.385       .  S
C922        F934   1.383       .  S
C922        F935   1.383       .  S
C924        C929   1.522       .  S
C924        C925   1.399       .  A
C925        C926   1.406       .  A
C925        H930   1.081       .  S
C926        C927   1.435       .  A
C927        C931   1.522       .  S
C927        C928   1.408       .  A
C928        H932   1.083       .  S
C929        F942   1.384       .  S
C929        F943   1.382       .  S
C929        F944   1.383       .  S
C931        F939   1.382       .  S
C931        F940   1.382       .  S
C931        F941   1.385       .  S
C945        C946   1.405       .  A
C945        C950   1.408       .  A
C945        H955   1.084       .  S
C946        C951   1.498       .  S
C946        C947   1.420       .  A
C947        C952   1.517       .  S
C947        C948   1.409       .  A
C948        C949   1.414       .  A
C948        H953   1.080       .  S
C949        C950   1.419       .  A
C950        C954   1.512       .  S
C951        C956   1.424       .  A
C951        C960   1.413       .  A
C952        F968   1.382       .  S
C952        F969   1.383       .  S
C952        F970   1.383       .  S
C954        F965   1.384       .  S
C954        F966   1.381       .  S
C954        F967   1.383       .  S
C956        C961   1.523       .  S
C956        C957   1.401       .  A
C957        C958   1.406       .  A
C957        H962   1.084       .  S
C958        C959   1.414       .  A
C959        C963   1.514       .  S
C959        C960   1.418       .  A
C960        H964   1.083       .  S
C961        F974   1.383       .  S
C961        F975   1.384       .  S
C961        F976   1.375       .  S
C963        F971   1.384       .  S
C963        F972   1.381       .  S
C963        F973   1.383       .  S
C977        C978   1.400       .  A
C977        C982   1.407       .  A
C977        H987   1.084       .  S
C978        C983   1.482       .  S
C978        C979   1.417       .  A
C979        C984   1.522       .  S
C979        C980   1.404       .  A
C980        C981   1.403       .  A
C980        H985   1.083       .  S
C981        C982   1.420       .  A
C982        C986   1.518       .  S
C983        C988   1.404       .  A
C983        C992   1.394       .  A
C984       F1000   1.382       .  S
C984       F1001   1.382       .  S
C984       F1002   1.384       .  S
C986        F997   1.385       .  S
C986        F998   1.382       .  S
C986        F999   1.384       .  S
C988        C993   1.523       .  S
C988        C989   1.403       .  A
C989        C990   1.423       .  A
C989        H994   1.075       .  S
C990        C991   1.440       .  A
C991        C995   1.523       .  S
C991        C992   1.411       .  A
C992        H996   1.083       .  S
C993       F1006   1.385       .  S
C993       F1007   1.382       .  S
C993       F1008   1.383       .  S
C995       F1003   1.386       .  S
C995       F1004   1.381       .  S
C995       F1005   1.381       .  S
C1009      C1010   1.396       .  A
C1009      C1014   1.405       .  A
C1009      H1019   1.083       .  S
C1010      C1015   1.472       .  S
C1010      C1011   1.407       .  A
C1011      C1016   1.520       .  S
C1011      C1012   1.401       .  A
C1012      C1013   1.414       .  A
C1012      H1017   1.078       .  S
C1013      C1014   1.433       .  A
C1014      C1018   1.524       .  S
C1015      C1020   1.418       .  A
C1015      C1024   1.404       .  A
C1016      F1032   1.383       .  S
C1016      F1033   1.383       .  S
C1016      F1034   1.385       .  S
C1018      F1029   1.383       .  S
C1018      F1030   1.385       .  S
C1018      F1031   1.379       .  S
C1020      C1025   1.521       .  S
C1020      C1021   1.400       .  A
C1021      C1022   1.400       .  A
C1021      H1026   1.085       .  S
C1022      C1023   1.410       .  A
C1023      C1027   1.516       .  S
C1023      C1024   1.405       .  A
C1024      H1028   1.083       .  S
C1025      F1038   1.383       .  S
C1025      F1039   1.381       .  S
C1025      F1040   1.383       .  S
C1027      F1035   1.384       .  S
C1027      F1036   1.383       .  S
C1027      F1037   1.383       .  S
C1041      C1042   1.400       .  A
C1041      C1046   1.409       .  A
C1041      H1051   1.084       .  S
C1042      C1047   1.478       .  S
C1042      C1043   1.412       .  A
C1043      C1048   1.522       .  S
C1043      C1044   1.398       .  A
C1044      C1045   1.412       .  A
C1044      H1049   1.083       .  S
C1045      C1046   1.425       .  A
C1046      C1050   1.514       .  S
C1047      C1052   1.415       .  A
C1047      C1056   1.402       .  A
C1048      F1064   1.382       .  S
C1048      F1065   1.383       .  S
C1048      F1066   1.385       .  S
C1050      F1061   1.385       .  S
C1050      F1062   1.380       .  S
C1050      F1063   1.382       .  S
C1052      C1057   1.520       .  S
C1052      C1053   1.402       .  A
C1053      C1054   1.400       .  A
C1053      H1058   1.083       .  S
C1054      C1055   1.417       .  A
C1055      C1059   1.518       .  S
C1055      C1056   1.407       .  A
C1056      H1060   1.083       .  S
C1057      F1070   1.384       .  S
C1057      F1071   1.383       .  S
C1057      F1072   1.383       .  S
C1059      F1067   1.381       .  S
C1059      F1068   1.383       .  S
C1059      F1069   1.384       .  S
C1073      C1074   1.405       .  A
C1073      C1078   1.412       .  A
C1073      H1083   1.084       .  S
C1074      C1079   1.487       .  S
C1074      C1075   1.412       .  A
C1075      C1080   1.525       .  S
C1075      C1076   1.402       .  A
C1076      C1077   1.411       .  A
C1076      H1081   1.071       .  S
C1077      C1078   1.421       .  A
C1078      C1082   1.515       .  S
C1079      C1084   1.415       .  A
C1079      C1088   1.404       .  A
C1080      F1096   1.382       .  S
C1080      F1097   1.383       .  S
C1080      F1098   1.385       .  S
C1082      F1093   1.383       .  S
C1082      F1094   1.384       .  S
C1082      F1095   1.383       .  S
C1084      C1089   1.522       .  S
C1084      C1085   1.404       .  A
C1085      C1086   1.409       .  A
C1085      H1090   1.081       .  S
C1086      C1087   1.418       .  A
C1087      C1091   1.516       .  S
C1087      C1088   1.409       .  A
C1088      H1092   1.084       .  S
C1089      F1102   1.385       .  S
C1089      F1103   1.382       .  S
C1089      F1104   1.383       .  S
C1091      F1099   1.383       .  S
C1091      F1100   1.383       .  S
C1091      F1101   1.383       .  S
C1105      C1106   1.398       .  A
C1105      C1110   1.407       .  A
C1105      H1115   1.083       .  S
C1106      C1111   1.485       .  S
C1106      C1107   1.410       .  A
C1107      C1112   1.521       .  S
C1107      C1108   1.405       .  A
C1108      C1109   1.417       .  A
C1108      H1113   1.078       .  S
C1109      C1110   1.429       .  A
C1110      C1114   1.518       .  S
C1111      C1116   1.416       .  A
C1111      C1120   1.403       .  A
C1112      F1128   1.382       .  S
C1112      F1129   1.383       .  S
C1112      F1130   1.385       .  S
C1114      F1125   1.385       .  S
C1114      F1126   1.379       .  S
C1114      F1127   1.381       .  S
C1116      C1121   1.520       .  S
C1116      C1117   1.406       .  A
C1117      C1118   1.403       .  A
C1117      H1122   1.083       .  S
C1118      C1119   1.417       .  A
C1119      C1123   1.519       .  S
C1119      C1120   1.409       .  A
C1120      H1124   1.083       .  S
C1121      F1134   1.384       .  S
C1121      F1135   1.382       .  S
C1121      F1136   1.383       .  S
C1123      F1131   1.381       .  S
C1123      F1132   1.384       .  S
C1123      F1133   1.384       .  S
C1137      C1138   1.402       .  A
C1137      C1142   1.409       .  A
C1137      H1147   1.084       .  S
C1138      C1143   1.493       .  S
C1138      C1139   1.416       .  A
C1139      C1144   1.521       .  S
C1139      C1140   1.408       .  A
C1140      C1141   1.409   1_554  A
C1140      H1145   1.079   1_554  S
C1141      C1142   1.423   1_556  A
C1142      C1146   1.515       .  S
C1143      C1148   1.420   1_554  A
C1143      C1152   1.407       .  A
C1144      F1160   1.382       .  S
C1144      F1161   1.380   1_554  S
C1144      F1162   1.385       .  S
C1146      F1157   1.382   1_554  S
C1146      F1158   1.384       .  S
C1146      F1159   1.382       .  S
C1148      C1153   1.522       .  S
C1148      C1149   1.404       .  A
C1149      C1150   1.402       .  A
C1149      H1154   1.083       .  S
C1150      C1151   1.415   1_556  A
C1151      C1155   1.514       .  S
C1151      C1152   1.413       .  A
C1152      H1156   1.082       .  S
C1153      F1166   1.385       .  S
C1153      F1167   1.382       .  S
C1153      F1168   1.383       .  S
C1155      F1163   1.385       .  S
C1155      F1164   1.384       .  S
C1155      F1165   1.380       .  S
C1169      C1170   1.402   1_565  A
C1169      C1174   1.406       .  A
C1169      H1179   1.083       .  S
C1170      C1175   1.484   1_545  S
C1170      C1171   1.418       .  A
C1171      C1176   1.519       .  S
C1171      C1172   1.406       .  A
C1172      C1173   1.400       .  A
C1172      H1177   1.083       .  S
C1173      C1174   1.416   1_545  A
C1174      C1178   1.519       .  S
C1175      C1180   1.411       .  A
C1175      C1184   1.398       .  A
C1176      F1192   1.382       .  S
C1176      F1193   1.382       .  S
C1176      F1194   1.384       .  S
C1178      F1189   1.382       .  S
C1178      F1190   1.384       .  S
C1178      F1191   1.383       .  S
C1180      C1185   1.521   1_565  S
C1180      C1181   1.406       .  A
C1181      C1182   1.415       .  A
C1181      H1186   1.081       .  S
C1182      C1183   1.430       .  A
C1183      C1187   1.518       .  S
C1183      C1184   1.407       .  A
C1184      H1188   1.085       .  S
C1185      F1198   1.384       .  S
C1185      F1199   1.382   1_545  S
C1185      F1200   1.382       .  S
C1187      F1195   1.382       .  S
C1187      F1196   1.378       .  S
C1187      F1197   1.385   1_565  S
C1201      C1202   1.399       .  A
C1201      C1206   1.403       .  A
C1201      H1211   1.083       .  S
C1202      C1207   1.459       .  S
C1202      C1203   1.417       .  A
C1203      C1208   1.520       .  S
C1203      C1204   1.391       .  A
C1204      C1205   1.392       .  A
C1204      H1209   1.084       .  S
C1205      C1206   1.415       .  A
C1206      C1210   1.516       .  S
C1207      C1212   1.415       .  A
C1207      C1216   1.394       .  A
C1208      F1224   1.385       .  S
C1208      F1225   1.383       .  S
C1208      F1226   1.380       .  S
C1210      F1221   1.382       .  S
C1210      F1222   1.378       .  S
C1210      F1223   1.384       .  S
C1212      C1217   1.512       .  S
C1212      C1213   1.386       .  A
C1213      C1214   1.399       .  A
C1213      H1218   1.076       .  S
C1214      C1215   1.424       .  A
C1215      C1219   1.514       .  S
C1215      C1216   1.399       .  A
C1216      H1220   1.084       .  S
C1217      F1230   1.383       .  S
C1217      F1231   1.372       .  S
C1217      F1232   1.383       .  S
C1219      F1227   1.384       .  S
C1219      F1228   1.383       .  S
C1219      F1229   1.382       .  S
C1233      C1234   1.401       .  A
C1233      C1238   1.404       .  A
C1233      H1243   1.084       .  S
C1234      C1239   1.473       .  S
C1234      C1235   1.415       .  A
C1235      C1240   1.517       .  S
C1235      C1236   1.399       .  A
C1236      C1237   1.403       .  A
C1236      H1241   1.085       .  S
C1237      C1238   1.420       .  A
C1238      C1242   1.519       .  S
C1239      C1244   1.410       .  A
C1239      C1248   1.392       .  A
C1240      F1256   1.383       .  S
C1240      F1257   1.380       .  S
C1240      F1258   1.383       .  S
C1242      F1253   1.385       .  S
C1242      F1254   1.381       .  S
C1242      F1255   1.383       .  S
C1244      C1249   1.520       .  S
C1244      C1245   1.402       .  A
C1245      C1246   1.415       .  A
C1245      H1250   1.077       .  S
C1246      C1247   1.443       .  A
C1247      C1251   1.534       .  S
C1247      C1248   1.404       .  A
C1248      H1252   1.084       .  S
C1249      F1262   1.383       .  S
C1249      F1263   1.383       .  S
C1249      F1264   1.382       .  S
C1251      F1259   1.386       .  S
C1251      F1260   1.380       .  S
C1251      F1261   1.381       .  S
C1265      C1266   1.406       .  A
C1265      C1270   1.404       .  A
C1265      H1275   1.084       .  S
C1266      C1271   1.475       .  S
C1266      C1267   1.405       .  A
C1267      C1272   1.510       .  S
C1267      C1268   1.402       .  A
C1268      C1269   1.403       .  A
C1268      H1273   1.078       .  S
C1269      C1270   1.410       .  A
C1270      C1274   1.514       .  S
C1271      C1276   1.403       .  A
C1271      C1280   1.404       .  A
C1272      F1288   1.382       .  S
C1272      F1289   1.382       .  S
C1272      F1290   1.381       .  S
C1274      F1285   1.384       .  S
C1274      F1286   1.383       .  S
C1274      F1287   1.382       .  S
C1276      C1281   1.513       .  S
C1276      C1277   1.399       .  A
C1277      C1278   1.416       .  A
C1277      H1282   1.084       .  S
C1278      C1279   1.425       .  A
C1279      C1283   1.520       .  S
C1279      C1280   1.404       .  A
C1280      H1284   1.083       .  S
C1281      F1294   1.383       .  S
C1281      F1295   1.382       .  S
C1281      F1296   1.382       .  S
C1283      F1291   1.384       .  S
C1283      F1292   1.380       .  S
C1283      F1293   1.381   1_556  S
C1297      C1298   1.396   1_545  A
C1297      C1302   1.408       .  A
C1297      H1307   1.083       .  S
C1298      C1303   1.480       .  S
C1298      C1299   1.412       .  A
C1299      C1304   1.519       .  S
C1299      C1300   1.401       .  A
C1300      C1301   1.413       .  A
C1300      H1305   1.073       .  S
C1301      C1302   1.438   1_565  A
C1302      C1306   1.529       .  S
C1303      C1308   1.417   1_565  A
C1303      C1312   1.403       .  A
C1304      F1320   1.383       .  S
C1304      F1321   1.380       .  S
C1304      F1322   1.384       .  S
C1306      F1317   1.381       .  S
C1306      F1318   1.385       .  S
C1306      F1319   1.377       .  S
C1308      C1313   1.518       .  S
C1308      C1309   1.403       .  A
C1309      C1310   1.405   1_545  A
C1309      H1314   1.085       .  S
C1310      C1311   1.419       .  A
C1311      C1315   1.519       .  S
C1311      C1312   1.406       .  A
C1312      H1316   1.084       .  S
C1313      F1326   1.384       .  S
C1313      F1327   1.383       .  S
C1313      F1328   1.381       .  S
C1315      F1323   1.385       .  S
C1315      F1324   1.382       .  S
C1315      F1325   1.383       .  S
C1329      C1330   1.402       .  A
C1329      C1334   1.398       .  A
C1329      H1339   1.084       .  S
C1330      C1335   1.466       .  S
C1330      C1331   1.403       .  A
C1331      C1336   1.512       .  S
C1331      C1332   1.401       .  A
C1332      C1333   1.404       .  A
C1332      H1337   1.080       .  S
C1333      C1334   1.412       .  A
C1334      C1338   1.519       .  S
C1335      C1340   1.417       .  A
C1335      C1344   1.397       .  A
C1336      F1352   1.383       .  S
C1336      F1353   1.382       .  S
C1336      F1354   1.384       .  S
C1338      F1349   1.385       .  S
C1338      F1350   1.382       .  S
C1338      F1351   1.381       .  S
C1340      C1345   1.519       .  S
C1340      C1341   1.393       .  A
C1341      C1342   1.401       .  A
C1341      H1346   1.080       .  S
C1342      C1343   1.422       .  A
C1343      C1347   1.514       .  S
C1343      C1344   1.402       .  A
C1344      H1348   1.084       .  S
C1345      F1358   1.384       .  S
C1345      F1359   1.383       .  S
C1345      F1360   1.379       .  S
C1347      F1355   1.383       .  S
C1347      F1356   1.381       .  S
C1347      F1357   1.382       .  S
C1361      C1362   1.405       .  A
C1361      C1366   1.415       .  A
C1361      H1371   1.084       .  S
C1362      C1367   1.489       .  S
C1362      C1363   1.415       .  A
C1363      C1368   1.520       .  S
C1363      C1364   1.402       .  A
C1364      C1365   1.404       .  A
C1364      H1369   1.071       .  S
C1365      C1366   1.426       .  A
C1366      C1370   1.516       .  S
C1367      C1372   1.414       .  A
C1367      C1376   1.398       .  A
C1368      F1384   1.380       .  S
C1368      F1385   1.383       .  S
C1368      F1386   1.381       .  S
C1370      F1381   1.384       .  S
C1370      F1382   1.383       .  S
C1370      F1383   1.383       .  S
C1372      C1377   1.514       .  S
C1372      C1373   1.413       .  A
C1373      C1374   1.406       .  A
C1373      H1378   1.083       .  S
C1374      C1375   1.429       .  A
C1375      C1379   1.525       .  S
C1375      C1376   1.407       .  A
C1376      H1380   1.083       .  S
C1377      F1390   1.385       .  S
C1377      F1391   1.383       .  S
C1377      F1392   1.382       .  S
C1379      F1387   1.381       .  S
C1379      F1388   1.379       .  S
C1379      F1389   1.385       .  S
C1393      C1394   1.397       .  A
C1393      C1398   1.404       .  A
C1393      H1403   1.085       .  S
C1394      C1399   1.474       .  S
C1394      C1395   1.412       .  A
C1395      C1400   1.523       .  S
C1395      C1396   1.402       .  A
C1396      C1397   1.412       .  A
C1396      H1401   1.079       .  S
C1397      C1398   1.430       .  A
C1398      C1402   1.520       .  S
C1399      C1404   1.413       .  A
C1399      C1408   1.398       .  A
C1400      F1416   1.382       .  S
C1400      F1417   1.381       .  S
C1400      F1418   1.385       .  S
C1402      F1413   1.384       .  S
C1402      F1414   1.384       .  S
C1402      F1415   1.379       .  S
C1404      C1409   1.518       .  S
C1404      C1405   1.407       .  A
C1405      C1406   1.405       .  A
C1405      H1410   1.083       .  S
C1406      C1407   1.418       .  A
C1407      C1411   1.519       .  S
C1407      C1408   1.398       .  A
C1408      H1412   1.085       .  S
C1409      F1422   1.385       .  S
C1409      F1423   1.381       .  S
C1409      F1424   1.381       .  S
C1411      F1419   1.384       .  S
C1411      F1420   1.380       .  S
C1411      F1421   1.383       .  S
C1425      C1426   1.406       .  A
C1425      C1430   1.389       .  A
C1425      H1435   1.081       .  S
C1426      C1431   1.476       .  S
C1426      C1427   1.409       .  A
C1427      C1432   1.516       .  S
C1427      C1428   1.407       .  A
C1428      C1429   1.410       .  A
C1428      H1433   1.083       .  S
C1429      C1430   1.412       .  A
C1430      C1434   1.523       .  S
C1431      C1436   1.406       .  A
C1431      C1440   1.399       .  A
C1432      F1448   1.382       .  S
C1432      F1449   1.378       .  S
C1432      F1450   1.384       .  S
C1434      F1445   1.386       .  S
C1434      F1446   1.383       .  S
C1434      F1447   1.379       .  S
C1436      C1441   1.509       .  S
C1436      C1437   1.404       .  A
C1437      C1438   1.407       .  A
C1437      H1442   1.080       .  S
C1438      C1439   1.428       .  A
C1439      C1443   1.522       .  S
C1439      C1440   1.408       .  A
C1440      H1444   1.082       .  S
C1441      F1454   1.382       .  S
C1441      F1455   1.383       .  S
C1441      F1456   1.378       .  S
C1443      F1451   1.383       .  S
C1443      F1452   1.381       .  S
C1443      F1453   1.385       .  S
C1457      C1458   1.404   1_554  A
C1457      C1462   1.415       .  A
C1457      H1467   1.083       .  S
C1458      C1463   1.490   1_556  S
C1458      C1459   1.416       .  A
C1459      C1464   1.522       .  S
C1459      C1460   1.405       .  A
C1460      C1461   1.406       .  A
C1460      H1465   1.082       .  S
C1461      C1462   1.419   1_556  A
C1462      C1466   1.515       .  S
C1463      C1468   1.414   1_554  A
C1463      C1472   1.403       .  A
C1464      F1480   1.383       .  S
C1464      F1481   1.384       .  S
C1464      F1482   1.382       .  S
C1466      F1477   1.378       .  S
C1466      F1478   1.384       .  S
C1466      F1479   1.383       .  S
C1468      C1473   1.520       .  S
C1468      C1469   1.406       .  A
C1469      C1470   1.409       .  A
C1469      H1474   1.080       .  S
C1470      C1471   1.421   1_556  A
C1471      C1475   1.516       .  S
C1471      C1472   1.409       .  A
C1472      H1476   1.084       .  S
C1473      F1486   1.385       .  S
C1473      F1487   1.382   1_556  S
C1473      F1488   1.380       .  S
C1475      F1483   1.384       .  S
C1475      F1484   1.384       .  S
C1475      F1485   1.382       .  S
C1489      C1490   1.393       .  A
C1489      C1494   1.401       .  A
C1489      H1499   1.086       .  S
C1490      C1495   1.477       .  S
C1490      C1491   1.409       .  A
C1491      C1496   1.519       .  S
C1491      C1492   1.407       .  A
C1492      C1493   1.416       .  A
C1492      H1497   1.077       .  S
C1493      C1494   1.437       .  A
C1494      C1498   1.528       .  S
C1495      C1500   1.414       .  A
C1495      C1504   1.403       .  A
C1496      F1512   1.380       .  S
C1496      F1513   1.382       .  S
C1496      F1514   1.385       .  S
C1498      F1509   1.383       .  S
C1498      F1510   1.385       .  S
C1498      F1511   1.376       .  S
C1500      C1505   1.520       .  S
C1500      C1501   1.402       .  A
C1501      C1502   1.402       .  A
C1501      H1506   1.083       .  S
C1502      C1503   1.415       .  A
C1503      C1507   1.518       .  S
C1503      C1504   1.407       .  A
C1504      H1508   1.083       .  S
C1505      F1518   1.384       .  S
C1505      F1519   1.383       .  S
C1505      F1520   1.382       .  S
C1507      F1515   1.384       .  S
C1507      F1516   1.384       .  S
C1507      F1517   1.381       .  S
