geometry optimzed in LAMMPS
_audit_creation_date              2020-12-01 
_audit_creation_method            'lammps2cif' 
_symmetry_space_group_name_H-M    'P1' 
_symmetry_Int_Tables_number       1 
_symmetry_cell_setting            triclinic 
loop_ 
_symmetry_equiv_pos_as_xyz 
  x,y,z 
_cell_length_a                    78.82223612 
_cell_length_b                    40.639727673309274 
_cell_length_c                    35.43927014080414 
_cell_angle_alpha                 89.84378117793814 
_cell_angle_beta                  89.70409282156875 
_cell_angle_gamma                 89.9233637503159 
loop_ 
_atom_site_label 
_atom_site_type_symbol 
_atom_site_fract_x 
_atom_site_fract_y 
_atom_site_fract_z 
_atom_site_charge 
O1          O  0.57694127  0.52714599  0.02789952    -0.72300
O2          O  0.62733244  0.53053060  0.03359953    -0.73300
O3          O  0.60133762  0.56518594  0.99213720    -0.61900
O4          O  0.60150490  0.49203056  0.06926146    -0.70300
O5          O  0.60193756  0.45444187  0.02390140    -0.69900
O6          O  0.60477420  0.52706101  0.94801394    -0.61100
O7          O  0.62930625  0.49119459  0.99067120    -0.73600
O8          O  0.57874311  0.49083942  0.98131386    -0.72400
Cu9        Cu  0.60188904  0.52996747  0.03245194     1.04600
Cu10       Cu  0.60392259  0.48958772  0.98443052     1.04300
C11         C  0.56992728  0.50930093  0.00290732     0.93900
C12         C  0.63640397  0.51125875  0.01338503     0.93000
C13         C  0.60211000  0.55699245  0.95742662     0.85200
C14         C  0.60061964  0.46198941  0.05867839     0.91400
O15         O  0.41298513  0.44906243  0.02202099    -0.72300
O16         O  0.41005649  0.52013583  0.94336769    -0.73300
O17         O  0.43614982  0.48668367  0.98005622    -0.61900
O18         O  0.38553070  0.48312932  0.98583204    -0.70300
O19         O  0.38576923  0.52398668  0.02710402    -0.69900
O20         O  0.43619978  0.52220943  0.02759012    -0.61100
O21         O  0.41246477  0.55858223  0.98738104    -0.73600
O22         O  0.41098550  0.48715097  0.06661516    -0.72400
Cu23       Cu  0.41099872  0.48338355  0.98126544     1.04600
Cu24       Cu  0.41117704  0.52429382  0.02878508     1.04300
C25         C  0.41307253  0.45712030  0.05678287     0.93900
C26         C  0.41232345  0.55018360  0.95266094     0.93000
C27         C  0.44410645  0.50504420  0.00313604     0.85200
C28         C  0.37756888  0.50339660  0.00708680     0.91400
C29         C  0.41510102  0.59694178  0.85883534     0.87100
C30         C  0.41244112  0.63067744  0.87765013    -0.53100
C31         C  0.41994883  0.63368619  0.91206340     0.10000
C32         C  0.42917145  0.60228518  0.92530525     0.21000
C33         C  0.43451407  0.59273943  0.85861823    -0.53800
C34         C  0.44220483  0.59482653  0.89332345     0.10100
C35         C  0.40856846  0.57201432  0.88793554    -0.53400
C36         C  0.41570832  0.57469250  0.92264324     0.10700
H37         H  0.40649370  0.65173226  0.86444212     0.15200
H38         H  0.43460966  0.60443678  0.95393089     0.01000
H39         H  0.44130524  0.58998193  0.83223500     0.15500
H40         H  0.39925556  0.55322555  0.88132262     0.15300
C41         C  0.41817805  0.41031999  0.14989692     0.87100
C42         C  0.41517559  0.37623540  0.13215486    -0.53100
C43         C  0.42131101  0.37306113  0.09634846     0.10000
C44         C  0.42994800  0.40433921  0.08100828     0.21000
C45         C  0.43750595  0.41513187  0.14639546    -0.53800
C46         C  0.44378748  0.41226474  0.11040075     0.10100
C47         C  0.41059293  0.43492469  0.12178385    -0.53400
C48         C  0.41667185  0.43207432  0.08592432     0.10700
H49         H  0.41002138  0.35508637  0.14685856     0.15200
H50         H  0.43482173  0.40200173  0.05170151     0.01000
H51         H  0.44554059  0.41993469  0.17055958     0.15500
H52         H  0.40164074  0.45399683  0.13000075     0.15300
N53         N  0.33527455  0.48384182  0.42973618    -0.26700
N54         N  0.34928619  0.49553187  0.44489795    -0.34500
C55         C  0.36226600  0.49071273  0.42077481     0.01700
C56         C  0.35619112  0.47506158  0.38875569     0.07700
C57         C  0.33895637  0.47111369  0.39574055    -0.05400
H58         H  0.37520815  0.49778636  0.42655899     0.08400
H59         H  0.32968499  0.45904249  0.37827002     0.09600
Cu60       Cu  0.35037567  0.51498048  0.49891466     0.44200
Cu61       Cu  0.31172401  0.48493077  0.45574492     0.42000
Cu62       Cu  0.31051322  0.51794271  0.55005081     0.43900
N63         N  0.34835101  0.52819643  0.55529433    -0.34000
N64         N  0.33384297  0.52885587  0.57409081    -0.28300
C65         C  0.33691384  0.53703053  0.61016695    -0.04400
C66         C  0.35424584  0.54204129  0.61446102     0.07800
C67         C  0.36102460  0.53604458  0.57887359     0.01600
H68         H  0.32716069  0.53838769  0.63162720     0.09300
H69         H  0.37422063  0.53728000  0.57051276     0.08300
N70         N  0.28901572  0.50391117  0.52043909    -0.35500
N71         N  0.28950880  0.49116865  0.48623482    -0.27700
C72         C  0.27362344  0.48419592  0.47522675    -0.02900
C73         C  0.26242803  0.49297484  0.50389108     0.05700
C74         C  0.27277746  0.50560142  0.53203668     0.03800
H75         H  0.27055656  0.47343846  0.44824651     0.08900
H76         H  0.26898260  0.51588192  0.55883942     0.07700
C77         C  0.42311843  0.91211454  0.83893506     0.87100
C78         C  0.41534208  0.93646146  0.86698348    -0.53100
C79         C  0.42044959  0.93232842  0.90322350     0.10000
C80         C  0.43345879  0.90393729  0.90841363     0.21000
C81         C  0.44243091  0.91642856  0.84383006    -0.53800
C82         C  0.44788304  0.91204976  0.88004602     0.10100
C83         C  0.41951030  0.87792851  0.85530855    -0.53400
C84         C  0.42478525  0.87310841  0.89164152     0.10700
H85         H  0.40677871  0.95610036  0.85853360     0.15200
H86         H  0.43787632  0.90111405  0.93791459     0.01000
H87         H  0.45130303  0.92222439  0.82138331     0.15500
H88         H  0.41377471  0.85867851  0.83846089     0.15300
C89         C  0.41398860  0.08985903  0.13333703     0.87100
C90         C  0.40864431  0.06694630  0.10123562    -0.53100
C91         C  0.41608746  0.07354511  0.06738454     0.10000
C92         C  0.42840157  0.10321214  0.06830192     0.21000
C93         C  0.43343487  0.08706182  0.13353282    -0.53800
C94         C  0.44127182  0.09444321  0.09985010     0.10100
C95         C  0.41035471  0.12455546  0.11857675    -0.53400
C96         C  0.41790975  0.13211541  0.08483080     0.10700
H97         H  0.40056889  0.04566068  0.10442240     0.15200
H98         H  0.43413831  0.10886302  0.04046707     0.01000
H99         H  0.44030358  0.07968190  0.15862836     0.15500
H100        H  0.40312118  0.14232168  0.13491916     0.15300
N101        N  0.33889209  0.97073333  0.56016118    -0.26700
N102        N  0.35221310  0.98504356  0.54441438    -0.34500
C103        C  0.36585870  0.98040353  0.56626094     0.01700
C104        C  0.36097388  0.96224688  0.59747176     0.07700
C105        C  0.34378888  0.95637804  0.59259072    -0.05400
H106        H  0.37843900  0.98926619  0.55943871     0.08400
H107        H  0.33537953  0.94330259  0.61160825     0.09600
Cu108      Cu  0.35181694  0.00944120  0.49358664     0.44200
Cu109      Cu  0.31464807  0.97290506  0.53728715     0.42000
Cu110      Cu  0.31227706  0.01585991  0.44639998     0.43900
N111        N  0.34961247  0.02786895  0.43981785    -0.34000
N112        N  0.33503226  0.03012581  0.42187803    -0.28300
C113        C  0.33797641  0.04113563  0.38662652    -0.04400
C114        C  0.35531202  0.04598675  0.38229721     0.07800
C115        C  0.36223942  0.03721558  0.41667092     0.01600
H116        H  0.32827561  0.04399823  0.36540060     0.09300
H117        H  0.37551611  0.03702983  0.42423593     0.08300
N118        N  0.29141591  0.99940504  0.47682190    -0.35500
N119        N  0.29211113  0.98331388  0.50927240    -0.27700
C120        C  0.27617881  0.97673746  0.52097058    -0.02900
C121        C  0.26493976  0.98946769  0.49466908     0.05700
C122        C  0.27511289  0.00364894  0.46718193     0.03800
H123        H  0.27306563  0.96447771  0.54722490     0.08900
H124        H  0.27099649  0.01610776  0.44181125     0.07700
O125        O  0.60513319  0.95347375  0.97795179    -0.72300
O126        O  0.60277707  0.02525993  0.05667724    -0.73300
O127        O  0.57966753  0.98650086  0.01620511    -0.61900
O128        O  0.62987869  0.99140744  0.01894812    -0.70300
O129        O  0.62965761  0.03186779  0.97693658    -0.69900
O130        O  0.57953649  0.02238712  0.96883773    -0.61100
O131        O  0.60069062  0.06290626  0.01143452    -0.73600
O132        O  0.60701102  0.99238076  0.93403288    -0.72400
Cu133      Cu  0.60456582  0.98790442  0.01919716     1.04600
Cu134      Cu  0.60437200  0.02878830  0.97136128     1.04300
C135        C  0.60546903  0.96211389  0.94324457     0.93900
C136        C  0.60015023  0.05504635  0.04626876     0.93000
C137        C  0.57177298  0.00252861  0.99083878     0.85200
C138        C  0.63783661  0.01235320  0.99858601     0.91400
O139        O  0.41456017  0.94807767  0.96689741    -0.72300
O140        O  0.41273836  0.01913083  0.04493671    -0.73300
O141        O  0.38755128  0.98458206  0.00389163    -0.61900
O142        O  0.43814698  0.98284593  0.00760141    -0.70300
O143        O  0.43921214  0.02093783  0.96249817    -0.69900
O144        O  0.38890190  0.02488948  0.96181594    -0.61100
O145        O  0.41519007  0.05856657  0.00182815    -0.73600
O146        O  0.41444403  0.98709748  0.92292188    -0.72400
Cu147      Cu  0.41304059  0.98239076  0.00745659     1.04600
Cu148      Cu  0.41429841  0.02420467  0.96065098     1.04300
C149        C  0.41598373  0.95679845  0.93244082     0.93900
C150        C  0.41455285  0.04952722  0.03632531     0.93000
C151        C  0.38013584  0.00567353  0.98276962     0.85200
C152        C  0.44656139  0.00081598  0.98468079     0.91400
C153        C  0.60271504  0.92039120  0.84731995     0.87100
C154        C  0.60459799  0.88518160  0.86274256    -0.53100
C155        C  0.59713039  0.87995971  0.89709982     0.10000
C156        C  0.58884511  0.91105860  0.91385720     0.21000
C157        C  0.58337624  0.92626060  0.84851661    -0.53800
C158        C  0.57594663  0.92181237  0.88330275     0.10100
C159        C  0.60988077  0.94248257  0.87814618    -0.53400
C160        C  0.60282358  0.93785133  0.91289825     0.10700
H161        H  0.60950833  0.86468714  0.84658005     0.15200
H162        H  0.58315045  0.90728353  0.94224462     0.01000
H163        H  0.57618638  0.93194175  0.82330414     0.15500
H164        H  0.61920447  0.96156193  0.87244248     0.15300
C165        C  0.59628426  0.10688508  0.13628395     0.87100
C166        C  0.60029560  0.13884278  0.11442771    -0.53100
C167        C  0.59352538  0.14021029  0.07910633     0.10000
C168        C  0.58349134  0.10919542  0.06820243     0.21000
C169        C  0.57680127  0.10463291  0.13520296    -0.53800
C170        C  0.57003673  0.10568248  0.09974726     0.10100
C171        C  0.60255188  0.07931433  0.11017245    -0.53400
C172        C  0.59601613  0.08036553  0.07470754     0.10700
H173        H  0.60675950  0.16000298  0.12588330     0.15200
H174        H  0.57800299  0.11028713  0.03941828     0.01000
H175        H  0.56899819  0.10264675  0.16046191     0.15500
H176        H  0.61143846  0.06041164  0.11911803     0.15300
N177        N  0.67961364  0.02617227  0.40879730    -0.26700
N178        N  0.66605261  0.02813711  0.43079103    -0.34500
C179        C  0.65320362  0.04128796  0.41103305     0.01700
C180        C  0.65887398  0.04813735  0.37476566     0.07700
C181        C  0.67571633  0.03806961  0.37445089    -0.05400
H182        H  0.64062852  0.04546547  0.42240432     0.08400
H183        H  0.68445605  0.03842455  0.35085106     0.09600
Cu184      Cu  0.66507115  0.01222491  0.48644128     0.44200
Cu185      Cu  0.70284787  0.00730456  0.42608933     0.42000
Cu186      Cu  0.70300409  0.97531510  0.52154066     0.43900
N187        N  0.66696795  0.99271921  0.54041643    -0.34000
N188        N  0.68090363  0.97848503  0.55291428    -0.28300
C189        C  0.67824973  0.96768325  0.58829990    -0.04400
C190        C  0.66177507  0.97568481  0.59905625     0.07800
C191        C  0.65504180  0.99151795  0.56765642     0.01600
H192        H  0.68768541  0.95452441  0.60437416     0.09300
H193        H  0.64241813  0.00158626  0.56465232     0.08300
N194        N  0.72437972  0.97842594  0.48776606    -0.35500
N195        N  0.72448595  0.98991772  0.45287894    -0.27700
C196        C  0.74059879  0.99054853  0.44015667    -0.02900
C197        C  0.75118929  0.97894544  0.46849762     0.05700
C198        C  0.74033656  0.97161367  0.49825868     0.03800
H199        H  0.74430557  0.99966339  0.41263569     0.08900
H200        H  0.74369110  0.96360584  0.52633692     0.07700
C201        C  0.59680193  0.59582614  0.86046641     0.87100
C202        C  0.60499704  0.57526657  0.89180497    -0.53100
C203        C  0.59891453  0.58119944  0.92711235     0.10000
C204        C  0.58476464  0.60772692  0.92818942     0.21000
C205        C  0.57770525  0.58820982  0.86530280    -0.53800
C206        C  0.57119295  0.59473757  0.90053554     0.10100
C207        C  0.59875310  0.63161255  0.87293686    -0.53400
C208        C  0.59243455  0.63808146  0.90805051     0.10700
H209        H  0.61366046  0.55503576  0.88631640     0.15200
H210        H  0.57985098  0.61277119  0.95699655     0.01000
H211        H  0.56993566  0.57843381  0.84281504     0.15500
H212        H  0.60395783  0.65066771  0.85470965     0.15300
C213        C  0.59596376  0.41145993  0.14954195     0.87100
C214        C  0.60265498  0.43855187  0.12308989    -0.53100
C215        C  0.59719448  0.43609446  0.08685168     0.10000
C216        C  0.58508266  0.40687070  0.08004559     0.21000
C217        C  0.57649078  0.41433777  0.14565931    -0.53800
C218        C  0.57084396  0.41173911  0.10941148     0.10100
C219        C  0.60048081  0.37899985  0.13004508    -0.53400
C220        C  0.59472957  0.37602703  0.09384773     0.10700
H221        H  0.61068137  0.45860316  0.13250315     0.15200
H222        H  0.58042313  0.40543423  0.05060371     0.01000
H223        H  0.56769471  0.41926601  0.16845659     0.15500
H224        H  0.60694130  0.35922961  0.14485385     0.15300
N225        N  0.67491257  0.45028104  0.44184504    -0.26700
N226        N  0.66032738  0.45828055  0.45795220    -0.34500
C227        C  0.64761766  0.45134109  0.43420272     0.01700
C228        C  0.65446810  0.43829304  0.40143977     0.07700
C229        C  0.67184197  0.43793325  0.40736620    -0.05400
H230        H  0.63439351  0.45652729  0.43996147     0.08400
H231        H  0.68162254  0.43112807  0.38733303     0.09600
Cu232      Cu  0.65814616  0.48156632  0.50958713     0.44200
Cu233      Cu  0.69834751  0.45993886  0.46572526     0.42000
Cu234      Cu  0.69736219  0.50792267  0.55178168     0.43900
N235        N  0.65920344  0.50752600  0.55965569    -0.34000
N236        N  0.67356894  0.51743028  0.57488783    -0.28300
C237        C  0.67007854  0.53316197  0.60731735    -0.04400
C238        C  0.65262166  0.53339428  0.61281689     0.07800
C239        C  0.64617976  0.51670735  0.58196695     0.01600
H240        H  0.67967790  0.54265407  0.62602188     0.09300
H241        H  0.63300349  0.51147138  0.57611970     0.08300
N242        N  0.71961210  0.49328345  0.52488602    -0.35500
N243        N  0.71992947  0.47514576  0.49398316    -0.27700
C244        C  0.73615563  0.46909697  0.48435055    -0.02900
C245        C  0.74662213  0.48436508  0.51023097     0.05700
C246        C  0.73565391  0.49944726  0.53557497     0.03800
H247        H  0.74003320  0.45496427  0.45995338     0.08900
H248        H  0.73902003  0.51331542  0.56043240     0.07700
O249        O  0.09768806  0.53792962  0.51962181    -0.72300
O250        O  0.10157807  0.46630704  0.44259190    -0.73300
O251        O  0.07502495  0.49803230  0.48026921    -0.61900
O252        O  0.12564395  0.50523172  0.48203841    -0.70300
O253        O  0.12648443  0.46516572  0.52448254    -0.69900
O254        O  0.07617220  0.46202226  0.52737014    -0.61100
O255        O  0.10072411  0.42765489  0.48696430    -0.73600
O256        O  0.10047955  0.50001591  0.56437776    -0.72400
Cu257      Cu  0.10011246  0.50321911  0.47953857     1.04600
Cu258      Cu  0.10117548  0.46245604  0.52744819     1.04300
C259        C  0.09781974  0.52989836  0.55442046     0.93900
C260        C  0.10038497  0.43607210  0.45224067     0.93000
C261        C  0.06764207  0.47907275  0.50396946     0.85200
C262        C  0.13416199  0.48563063  0.50298323     0.91400
O263        O  0.88288951  0.46365891  0.53200054    -0.72300
O264        O  0.93331136  0.46508498  0.53587284    -0.73300
O265        O  0.90776263  0.50065651  0.57286827    -0.61900
O266        O  0.91004046  0.42885058  0.49460361    -0.70300
O267        O  0.90879465  0.46806968  0.45096857    -0.69900
O268        O  0.90955851  0.53919368  0.52848467    -0.61100
O269        O  0.93379384  0.50258637  0.49009605    -0.73600
O270        O  0.88305977  0.50409470  0.48995867    -0.72400
Cu271      Cu  0.90829213  0.46326390  0.53550748     1.04600
Cu272      Cu  0.90863832  0.50478160  0.48828662     1.04300
C273        C  0.87487413  0.48362017  0.51061021     0.93900
C274        C  0.94147204  0.48370826  0.51324195     0.93000
C275        C  0.90968581  0.53083035  0.56314047     0.85200
C276        C  0.91060421  0.43780871  0.46006000     0.91400
C277        C  0.91358731  0.57659759  0.65673189     0.87100
C278        C  0.90632234  0.55245052  0.62766928    -0.53100
C279        C  0.91296617  0.55573430  0.59240937     0.10000
C280        C  0.92667803  0.58289900  0.58905928     0.21000
C281        C  0.93283618  0.57022939  0.65486351    -0.53800
C282        C  0.93991552  0.57310084  0.61947639     0.10100
C283        C  0.91126451  0.61070477  0.63933031    -0.53400
C284        C  0.91802112  0.61459386  0.60411259     0.10700
H285        H  0.89772117  0.53247399  0.63419678     0.15200
H286        H  0.93201008  0.58537484  0.56015999     0.01000
H287        H  0.94016270  0.56452380  0.67984995     0.15500
H288        H  0.90528774  0.63073512  0.65470677     0.15300
C289        C  0.91675047  0.39869963  0.36349968     0.87100
C290        C  0.90857700  0.41995754  0.39416921    -0.53100
C291        C  0.91423619  0.41402219  0.42969753     0.10000
C292        C  0.92753354  0.38603097  0.43187001     0.21000
C293        C  0.93599613  0.40315635  0.36852331    -0.53800
C294        C  0.94170222  0.39644634  0.40405611     0.10100
C295        C  0.91339707  0.36313729  0.37681893    -0.53400
C296        C  0.91897154  0.35637553  0.41258444     0.10700
H297        H  0.89962722  0.43958382  0.38792533     0.15200
H298        H  0.93220655  0.38097063  0.46082498     0.01000
H299        H  0.94444489  0.41039488  0.34566240     0.15500
H300        H  0.90788396  0.34414327  0.35949905     0.15300
N301        N  0.83687346  0.50497144  0.09466524    -0.26700
N302        N  0.85115594  0.51298893  0.07733527    -0.34500
C303        C  0.86433923  0.50380104  0.09885080     0.01700
C304        C  0.85810428  0.48939505  0.13164474     0.07700
C305        C  0.84058865  0.49058229  0.12780244    -0.05400
H306        H  0.87744991  0.50670666  0.09045199     0.08400
H307        H  0.83115277  0.48167141  0.14757275     0.09600
Cu308      Cu  0.85213544  0.53508655  0.02474206     0.44200
Cu309      Cu  0.81300729  0.51298791  0.07191594     0.42000
Cu310      Cu  0.81204714  0.54886954  0.97810901     0.43900
N311        N  0.85001839  0.55372414  0.97063657    -0.34000
N312        N  0.83542462  0.55829329  0.95324703    -0.28300
C313        C  0.83852392  0.56778637  0.91749752    -0.04400
C314        C  0.85596650  0.56938798  0.91206514     0.07800
C315        C  0.86278072  0.56031589  0.94656038     0.01600
H316        H  0.82873655  0.57139918  0.89664037     0.09300
H317        H  0.87604957  0.55755590  0.95349873     0.08300
N318        N  0.79048816  0.53667346  0.00888190    -0.35500
N319        N  0.79080934  0.52317233  0.04284839    -0.27700
C320        C  0.77478734  0.51743072  0.05434491    -0.02900
C321        C  0.76382356  0.52811042  0.02641544     0.05700
C322        C  0.77426845  0.54010458  0.99799098     0.03800
H323        H  0.77138932  0.50638990  0.08114292     0.08900
H324        H  0.77043862  0.54978873  0.97088202     0.07700
C325        C  0.91710599  0.89719019  0.63218973     0.87100
C326        C  0.91511732  0.86176309  0.61830243    -0.53100
C327        C  0.92152867  0.85608717  0.58314930     0.10000
C328        C  0.92951933  0.88689761  0.56444739     0.21000
C329        C  0.93642080  0.90347897  0.62855146    -0.53800
C330        C  0.94303699  0.89844380  0.59307985     0.10100
C331        C  0.90920137  0.91876417  0.60155154    -0.53400
C332        C  0.91559059  0.91394241  0.56619983     0.10700
H333        H  0.90980745  0.84222393  0.63569352     0.15200
H334        H  0.93462720  0.88250766  0.53564826     0.01000
H335        H  0.94451471  0.90924769  0.65214794     0.15500
H336        H  0.90001315  0.93795902  0.60790507     0.15300
C337        C  0.92106733  0.08424557  0.34369610     0.87100
C338        C  0.91807047  0.11737749  0.36376706    -0.53100
C339        C  0.92440287  0.11876929  0.39946103     0.10000
C340        C  0.93310371  0.08676159  0.41241882     0.21000
C341        C  0.94039373  0.07935543  0.34611645    -0.53800
C342        C  0.94690683  0.08038162  0.38194833     0.10100
C343        C  0.91357909  0.05833963  0.37049081    -0.53400
C344        C  0.91969358  0.05948805  0.40627841     0.10700
H345        H  0.91263367  0.13907744  0.35083938     0.15200
H346        H  0.93797946  0.08757997  0.44170025     0.01000
H347        H  0.94825333  0.07610502  0.32115429     0.15500
H348        H  0.90444008  0.03997983  0.36155286     0.15300
N349        N  0.83645431  0.96384119  0.92059432    -0.26700
N350        N  0.85123458  0.96731910  0.93761748    -0.34500
C351        C  0.86371364  0.95874399  0.91350984     0.01700
C352        C  0.85650772  0.94937630  0.87955014     0.07700
C353        C  0.83917702  0.95305726  0.88520967    -0.05400
H354        H  0.87707176  0.96040951  0.91998801     0.08400
H355        H  0.82921923  0.94844993  0.86502069     0.09600
Cu356      Cu  0.85410926  0.98510261  0.99225271     0.44200
Cu357      Cu  0.81314799  0.97498777  0.94531694     0.42000
Cu358      Cu  0.81534178  0.00660864  0.04007392     0.43900
N359        N  0.85333955  0.00473508  0.04641709    -0.34000
N360        N  0.83902316  0.01227725  0.06378231    -0.28300
C361        C  0.84249670  0.02497085  0.09779156    -0.04400
C362        C  0.86000224  0.02580633  0.10246183     0.07800
C363        C  0.86638088  0.01255815  0.06902537     0.01600
H364        H  0.83273665  0.03306608  0.11707167     0.09300
H365        H  0.87953154  0.00905803  0.06125106     0.08300
N366        N  0.79291312  0.00108513  0.01097137    -0.35500
N367        N  0.79194008  0.98936505  0.97634386    -0.27700
C368        C  0.77555595  0.98901727  0.96585976    -0.02900
C369        C  0.76570894  0.00107725  0.99540474     0.05700
C370        C  0.77727538  0.00862458  0.02341912     0.03800
H371        H  0.77117017  0.98028064  0.93881889     0.08900
H372        H  0.77473136  0.01936808  0.05071838     0.07700
O373        O  0.12911843  0.96282869  0.47326088    -0.72300
O374        O  0.07846335  0.96576599  0.47019326    -0.73300
O375        O  0.10443515  0.99963710  0.43278329    -0.61900
O376        O  0.10160950  0.92812305  0.51086670    -0.70300
O377        O  0.10355178  0.96689826  0.55462368    -0.69900
O378        O  0.10232519  0.03843982  0.47656051    -0.61100
O379        O  0.07855414  0.00195055  0.51710692    -0.73600
O380        O  0.12876312  0.00374668  0.51444508    -0.72400
Cu381      Cu  0.10357148  0.96269510  0.47016995     1.04600
Cu382      Cu  0.10346027  0.00400429  0.51731372     1.04300
C383        C  0.13702148  0.98381643  0.49347069     0.93900
C384        C  0.07059909  0.98409059  0.49365565     0.93000
C385        C  0.10269322  0.02987245  0.44197360     0.85200
C386        C  0.10130387  0.93677597  0.54542751     0.91400
O387        O  0.91362173  0.04154911  0.46918973    -0.72300
O388        O  0.91001571  0.96862171  0.54571517    -0.73300
O389        O  0.93617502  0.00527562  0.51273022    -0.61900
O390        O  0.88588627  0.00467844  0.50209205    -0.70300
O391        O  0.88792856  0.96562447  0.45876262    -0.69900
O392        O  0.93804517  0.96897173  0.46608926    -0.61100
O393        O  0.91347787  0.93076932  0.50131099    -0.73600
O394        O  0.91415037  0.00392488  0.42389022    -0.72400
Cu395      Cu  0.91115103  0.00633505  0.50899858     1.04600
Cu396      Cu  0.91328612  0.96605731  0.46084236     1.04300
C397        C  0.91537440  0.03392143  0.43447130     0.93900
C398        C  0.91256755  0.93866502  0.53612716     0.93000
C399        C  0.94498143  0.98709707  0.49086949     0.85200
C400        C  0.87886649  0.98475603  0.47909982     0.91400
C401        C  0.09504616  0.57627290  0.64768906     0.87100
C402        C  0.09714913  0.61043438  0.62973012    -0.53100
C403        C  0.08977042  0.61377109  0.59519919     0.10000
C404        C  0.08078882  0.58228927  0.58141420     0.21000
C405        C  0.07563561  0.57099337  0.64798632    -0.53800
C406        C  0.06801872  0.57419486  0.61350109     0.10100
C407        C  0.10169319  0.55196889  0.61838819    -0.53400
C408        C  0.09441342  0.55473396  0.58384736     0.10700
H409        H  0.10319140  0.63088584  0.64404264     0.15200
H410        H  0.07489366  0.58514581  0.55322915     0.01000
H411        H  0.06821314  0.56608245  0.67307565     0.15500
H412        H  0.11110418  0.53324704  0.62490211     0.15300
C413        C  0.09421678  0.39634695  0.35655604     0.87100
C414        C  0.09641976  0.36055834  0.36932971    -0.53100
C415        C  0.09104155  0.35445632  0.40522908     0.10000
C416        C  0.08344679  0.38471009  0.42532515     0.21000
C417        C  0.07503953  0.40282587  0.36250473    -0.53800
C418        C  0.06927056  0.39669935  0.39847134     0.10100
C419        C  0.10289575  0.41709842  0.38667523    -0.53400
C420        C  0.09728282  0.41156743  0.42250218     0.10700
H421        H  0.10129392  0.34125171  0.35108601     0.15200
H422        H  0.07908616  0.37983219  0.45463419     0.01000
H423        H  0.06644439  0.40975076  0.34009700     0.15500
H424        H  0.11185666  0.43653299  0.37972625     0.15300
N425        N  0.22256687  0.49560847  0.02616221    -0.26700
N426        N  0.22293414  0.50426111  0.99021712    -0.34500
C427        C  0.23913507  0.50725648  0.97888497     0.01700
C428        C  0.24957778  0.49998256  0.00910919     0.07700
C429        C  0.23858750  0.49288609  0.03871189    -0.05400
H430        H  0.24291506  0.51471619  0.95077548     0.08400
H431        H  0.24195385  0.48577671  0.06714412     0.09600
Cu432      Cu  0.20154881  0.51163803  0.95782661     0.44200
Cu433      Cu  0.20023558  0.48749388  0.05590134     0.42000
Cu434      Cu  0.16108985  0.50185309  0.00463715     0.43900
N435        N  0.17855163  0.51870655  0.93134138    -0.34000
N436        N  0.16374539  0.51582443  0.94867283    -0.28300
C437        C  0.15132207  0.52280530  0.92409415    -0.04400
C438        C  0.15867912  0.53042422  0.88958960     0.07800
C439        C  0.17596409  0.52734819  0.89519147     0.01600
H440        H  0.13792937  0.52181808  0.93079404     0.09300
H441        H  0.18595550  0.53159111  0.87471180     0.08300
N442        N  0.16197553  0.48525554  0.05990646    -0.35500
N443        N  0.17622374  0.47996756  0.07845252    -0.27700
C444        C  0.17245117  0.46872448  0.11316357    -0.02900
C445        C  0.15495484  0.46667664  0.11677148     0.05700
C446        C  0.14875291  0.47751798  0.08234598     0.03800
H447        H  0.18183582  0.46206365  0.13399949     0.08900
H448        H  0.13563301  0.48007572  0.07410756     0.07700
C449        C  0.09640446  0.89545271  0.64126585     0.87100
C450        C  0.10359176  0.91815807  0.61094887    -0.53100
C451        C  0.09766746  0.91269510  0.57566761     0.10000
C452        C  0.08469485  0.88402258  0.57351421     0.21000
C453        C  0.07696176  0.89935277  0.63776081    -0.53800
C454        C  0.07064899  0.89287385  0.60252176     0.10100
C455        C  0.09979116  0.86042183  0.62701893    -0.53400
C456        C  0.09376612  0.85414450  0.59159919     0.10700
H457        H  0.11229128  0.93810521  0.61733770     0.15200
H458        H  0.07986366  0.87923742  0.54468304     0.01000
H459        H  0.06868538  0.90615427  0.66083711     0.15500
H460        H  0.10565244  0.84165856  0.64452988     0.15300
C461        C  0.10216534  0.07460941  0.34717204     0.87100
C462        C  0.10768044  0.04957185  0.37723098    -0.53100
C463        C  0.10060488  0.05448516  0.41179360     0.10000
C464        C  0.08837933  0.08417608  0.41361150     0.21000
C465        C  0.08266796  0.07241560  0.34758595    -0.53800
C466        C  0.07524707  0.07765792  0.38217560     0.10100
C467        C  0.10613078  0.10823022  0.36447540    -0.53400
C468        C  0.09877297  0.11378947  0.39889064     0.10700
H469        H  0.11582069  0.02859224  0.37236984     0.15200
H470        H  0.08281911  0.08810432  0.44202137     0.01000
H471        H  0.07541086  0.06718756  0.32235195     0.15500
H472        H  0.11325146  0.12694551  0.34926864     0.15300
N473        N  0.18031915  0.99415568  0.90810534    -0.26700
N474        N  0.16598948  0.99541389  0.92753928    -0.34500
C475        C  0.15320117  0.98517404  0.90562896     0.01700
C476        C  0.15972965  0.97724238  0.87047392     0.07700
C477        C  0.17700540  0.98322979  0.87311039    -0.05400
H478        H  0.14008056  0.98391727  0.91461784     0.08400
H479        H  0.18656486  0.97918267  0.85161850     0.09600
Cu480      Cu  0.16431493  0.01170686  0.98256125     0.44200
Cu481      Cu  0.20367970  0.00636638  0.93087316     0.42000
Cu482      Cu  0.20318579  0.03884535  0.02629732     0.43900
N483        N  0.16539898  0.03217816  0.03574501    -0.34000
N484        N  0.17952514  0.04270462  0.05154121    -0.28300
C485        C  0.17589460  0.05424023  0.08616821    -0.04400
C486        C  0.15862858  0.05074214  0.09247658     0.07800
C487        C  0.15241480  0.03658714  0.05988079     0.01600
H488        H  0.18528244  0.06310976  0.10581349     0.09300
H489        H  0.13944104  0.02958910  0.05420478     0.08300
N490        N  0.22516778  0.02999044  0.99571100    -0.35500
N491        N  0.22533525  0.01808703  0.96106372    -0.27700
C492        C  0.24150881  0.01378876  0.94995439    -0.02900
C493        C  0.25214340  0.02358158  0.97894423     0.05700
C494        C  0.24123310  0.03365344  0.00752917     0.03800
H495        H  0.24509157  0.00309418  0.92319493     0.08900
H496        H  0.24464226  0.04268363  0.03514094     0.07700
C497        C  0.14563348  0.08636178  0.18713372    -0.27600
C498        C  0.13217409  0.06554638  0.19704381     0.06000
C499        C  0.12692129  0.04107486  0.17193431     0.25700
C500        C  0.13527224  0.03709854  0.13744236    -0.12100
C501        C  0.14915907  0.05714175  0.12779310    -0.26000
C502        C  0.15414675  0.08220058  0.15276508     0.36500
C503        C  0.12450088  0.06765333  0.23479421     0.06000
F504        F  0.11397885  0.02055453  0.18126349    -0.19800
H505        H  0.13123668  0.01751546  0.11890152     0.15900
F506        F  0.16714693  0.10274343  0.14398420    -0.23500
H507        H  0.14978411  0.10529791  0.20645139     0.17700
C508        C  0.12944626  0.04543564  0.26284208     0.25700
C509        C  0.12228925  0.04716103  0.29882241    -0.12000
C510        C  0.10985853  0.07107416  0.30763803    -0.26100
C511        C  0.10493808  0.09325962  0.27886377     0.36600
C512        C  0.11226021  0.09156737  0.24289260    -0.27700
F513        F  0.14144556  0.02227314  0.25550034    -0.19800
H514        H  0.12695286  0.02975289  0.31915906     0.15900
F515        F  0.09313555  0.11689594  0.28568751    -0.23500
H516        H  0.10835836  0.10886218  0.22129408     0.17700
C517        C  0.13088850  0.90875917  0.71518289    -0.27600
C518        C  0.12216526  0.92508049  0.74415707     0.06000
C519        C  0.10456729  0.92978371  0.74088680     0.25700
C520        C  0.09594859  0.91872844  0.70893939    -0.12100
C521        C  0.10470805  0.90302194  0.67918271    -0.26000
C522        C  0.12236497  0.89798658  0.68309856     0.36500
C523        C  0.13169636  0.93843955  0.77666219     0.06000
F524        F  0.09582090  0.94685528  0.76751917    -0.19800
H525        H  0.08261291  0.92429612  0.70736220     0.15900
F526        F  0.13159284  0.88389682  0.65498696    -0.23500
H527        H  0.14445819  0.90487650  0.71708623     0.17700
C528        C  0.12644433  0.93222935  0.81396059     0.25700
C529        C  0.13556801  0.94514397  0.84418905    -0.12000
C530        C  0.15021349  0.96411628  0.83790839    -0.26100
C531        C  0.15550995  0.97023596  0.80056362     0.36600
C532        C  0.14630636  0.95749311  0.77032657    -0.27700
F533        F  0.11279506  0.91286013  0.82124864    -0.19800
H534        H  0.13133754  0.93967336  0.87263208     0.15900
F535        F  0.16924246  0.98932468  0.79311256    -0.23500
H536        H  0.15048243  0.96286705  0.74179974     0.17700
C537        C  0.10598561  0.27339774  0.44517025    -0.27600
C538        C  0.09361514  0.25186859  0.43083520     0.06000
C539        C  0.07934787  0.26539022  0.41255154     0.25700
C540        C  0.07794993  0.29933684  0.40733392    -0.12100
C541        C  0.09071697  0.32048133  0.41986155    -0.26000
C542        C  0.10464428  0.30746087  0.43938971     0.36500
C543        C  0.09626527  0.21553720  0.43115939     0.06000
F544        F  0.06742506  0.24572163  0.39682394    -0.19800
H545        H  0.06739050  0.30902201  0.39126945     0.15900
F546        F  0.11742542  0.32744556  0.45066492    -0.23500
H547        H  0.11701883  0.26374627  0.45954946     0.17700
C548        C  0.11166914  0.20173269  0.41849884     0.25700
C549        C  0.11283088  0.16797372  0.41132770    -0.12000
C550        C  0.09864093  0.14733344  0.41585612    -0.26100
C551        C  0.08367518  0.16071384  0.43136664     0.36600
C552        C  0.08264463  0.19435177  0.43936233    -0.27700
F553        F  0.12517203  0.22109089  0.40987188    -0.19800
H554        H  0.12460572  0.15829049  0.40001371     0.15900
F555        F  0.06947720  0.14222461  0.43553328    -0.23500
H556        H  0.07076153  0.20422077  0.44986554     0.17700
C557        C  0.12637292  0.40175528  0.27542739    -0.27600
C558        C  0.11829679  0.42279497  0.24978944     0.06000
C559        C  0.10179802  0.43391126  0.25796703     0.25700
C560        C  0.09367437  0.42441467  0.29147388    -0.12100
C561        C  0.10182030  0.40358871  0.31766768    -0.26000
C562        C  0.11846651  0.39279821  0.30919766     0.36500
C563        C  0.12752919  0.43423756  0.21563589     0.06000
F564        F  0.09388312  0.45547825  0.23460341    -0.19800
H565        H  0.08138437  0.43499677  0.29732058     0.15900
F566        F  0.12743756  0.37442293  0.33418059    -0.23500
H567        H  0.13907240  0.39278903  0.26968751     0.17700
C568        C  0.14408619  0.44681169  0.21846806     0.25700
C569        C  0.15280647  0.45728139  0.18625206    -0.12000
C570        C  0.14525868  0.45556865  0.15047955    -0.26100
C571        C  0.12864995  0.44298285  0.14764643     0.36600
C572        C  0.11991893  0.43248064  0.17998052    -0.27700
F573        F  0.15172578  0.44972439  0.25254246    -0.19800
H574        H  0.16544296  0.46721737  0.18953361     0.15900
F575        F  0.12097831  0.43974098  0.11369529    -0.23500
H576        H  0.10727716  0.42241035  0.17708708     0.17700
C577        C  0.07520592  0.70113722  0.58153175    -0.27600
C578        C  0.08908408  0.71511654  0.56219673     0.06000
C579        C  0.10189613  0.69396560  0.54839893     0.25700
C580        C  0.10142535  0.66014277  0.55652274    -0.12100
C581        C  0.08806067  0.64679264  0.57785174    -0.26000
C582        C  0.07467085  0.66735305  0.58923447     0.36500
C583        C  0.09117001  0.75167888  0.56168176     0.06000
F584        F  0.11523146  0.70618909  0.52846780    -0.19800
H585        H  0.11193703  0.64465670  0.54788179     0.15900
F586        F  0.06178060  0.65519898  0.61063402    -0.23500
H587        H  0.06531255  0.71668001  0.59311396     0.17700
C588        C  0.07742356  0.77292009  0.55411054     0.25700
C589        C  0.07873555  0.80680376  0.56117932    -0.12000
C590        C  0.09372036  0.82011432  0.57600542    -0.26100
C591        C  0.10786579  0.79933806  0.58063230     0.36600
C592        C  0.10654808  0.76556488  0.57371035    -0.27700
F593        F  0.06251161  0.76076214  0.54124204    -0.19800
H594        H  0.06767324  0.82225899  0.55728120     0.15900
F595        F  0.12280922  0.81147811  0.59338057    -0.23500
H596        H  0.11732938  0.74999757  0.58003045     0.17700
C597        C  0.12638084  0.56522207  0.82161987    -0.27600
C598        C  0.13290638  0.55475936  0.78673993     0.06000
C599        C  0.14832522  0.53731764  0.78574975     0.25700
C600        C  0.15681164  0.52996627  0.81929143    -0.12100
C601        C  0.14998084  0.53956425  0.85427063    -0.26000
C602        C  0.13476061  0.55763271  0.85511461     0.36500
C603        C  0.12316948  0.56105069  0.75187004     0.06000
F604        F  0.15481468  0.52622568  0.75257403    -0.19800
H605        H  0.16848240  0.51591240  0.81797827     0.15900
F606        F  0.12812879  0.56858643  0.88818735    -0.23500
H607        H  0.11469264  0.57923843  0.82290521     0.17700
C608        C  0.10598313  0.55231072  0.74995073     0.25700
C609        C  0.09677944  0.55779768  0.71703803    -0.12000
C610        C  0.10445100  0.57227168  0.68502571    -0.26100
C611        C  0.12185084  0.58050916  0.68703690     0.36600
C612        C  0.13100202  0.57522030  0.72018887    -0.27700
F613        F  0.09821980  0.53707790  0.77948049    -0.19800
H614        H  0.08387205  0.54919697  0.71693444     0.15900
F615        F  0.13013775  0.59319178  0.65663500    -0.23500
H616        H  0.14426645  0.58209479  0.72106953     0.17700
C617        C  0.02547137  0.98104928  0.46138038    -0.27600
C618        C  0.01696207  0.98823469  0.49513728     0.06000
C619        C  0.02603451  0.99371445  0.52837046     0.25700
C620        C  0.04361209  0.99222805  0.52764794    -0.12100
C621        C  0.05217938  0.98491548  0.49390255    -0.26000
C622        C  0.04303988  0.97925611  0.46068508     0.36500
C623        C  0.99855189  0.98797609  0.49575799     0.06000
F624        F  0.01787514  0.99926125  0.56159252    -0.19800
H625        H  0.05052319  0.99621636  0.55358104     0.15900
F626        F  0.05105665  0.97288204  0.42749719    -0.23500
H627        H  0.01845624  0.97683233  0.43562709     0.17700
C628        C  0.98939641  0.01590437  0.50695705     0.25700
C629        C  0.97177950  0.01531372  0.50617805    -0.12000
C630        C  0.96333048  0.98697269  0.49395334    -0.26100
C631        C  0.97257199  0.95885922  0.48350452     0.36600
C632        C  0.99011287  0.95948890  0.48434714    -0.27700
F633        F  0.99749412  0.04389903  0.51733793    -0.19800
H634        H  0.96476959  0.03721918  0.51404149     0.15900
F635        F  0.96467716  0.93075316  0.47273843    -0.23500
H636        H  0.99714494  0.93776339  0.47596297     0.17700
C637        C  0.99184330  0.09386567  0.42018423    -0.27600
C638        C  0.00155430  0.07512693  0.39475296     0.06000
C639        C  0.99312593  0.05574718  0.36802422     0.25700
C640        C  0.97542659  0.05641552  0.36549833    -0.12100
C641        C  0.96559448  0.07675924  0.38919362    -0.26000
C642        C  0.97403376  0.09485116  0.41744932     0.36500
C643        C  0.02039025  0.07778622  0.39353769     0.06000
F644        F  0.00210015  0.03666807  0.34365814    -0.19800
H645        H  0.96942760  0.04136078  0.34425147     0.15900
F646        F  0.96532601  0.11512048  0.44092220    -0.23500
H647        H  0.99810939  0.10898925  0.44100387     0.17700
C648        C  0.02839991  0.09039166  0.36109812     0.25700
C649        C  0.04608877  0.09088480  0.35822549    -0.12000
C650        C  0.05634834  0.07855112  0.38743514    -0.26100
C651        C  0.04831462  0.06687745  0.42057610     0.36600
C652        C  0.03048887  0.06666512  0.42356157    -0.27700
F653        F  0.01904704  0.10225706  0.33200274    -0.19800
H654        H  0.05175999  0.10100790  0.33285257     0.15900
F655        F  0.05754974  0.05429446  0.44939488    -0.23500
H656        H  0.02455400  0.05684563  0.44881767     0.17700
C657        C  0.90966518  0.04467291  0.24909266    -0.27600
C658        C  0.89877483  0.06793213  0.23278962     0.06000
C659        C  0.89612608  0.09802273  0.25130949     0.25700
C660        C  0.90370304  0.10412229  0.28620083    -0.12100
C661        C  0.91414299  0.08029415  0.30361547    -0.26000
C662        C  0.91723646  0.05064930  0.28397460     0.36500
C663        C  0.88911961  0.05939310  0.19834726     0.06000
F664        F  0.88595338  0.12141820  0.23592122    -0.19800
H665        H  0.90069212  0.12719404  0.29948963     0.15900
F666        F  0.92707908  0.02670835  0.29930744    -0.23500
H667        H  0.91174747  0.02113877  0.23555154     0.17700
C668        C  0.89724607  0.04644436  0.16631298     0.25700
C669        C  0.88773110  0.03599745  0.13534406    -0.12000
C670        C  0.86987219  0.03817529  0.13548224    -0.26100
C671        C  0.86184836  0.05200281  0.16753766     0.36600
C672        C  0.87140392  0.06231730  0.19841206    -0.27700
F673        F  0.91441467  0.04403141  0.16486648    -0.19800
H674        H  0.89450616  0.02593703  0.11142957     0.15900
F675        F  0.84478812  0.05547631  0.16986987    -0.23500
H676        H  0.86484946  0.07188982  0.22299328     0.17700
C677        C  0.98944768  0.92447602  0.60032983    -0.27600
C678        C  0.99767383  0.90081838  0.57802385     0.06000
C679        C  0.98773829  0.87903824  0.55671668     0.25700
C680        C  0.96991730  0.87946430  0.56003578    -0.12100
C681        C  0.96169625  0.90161068  0.58464638    -0.26000
C682        C  0.97172127  0.92522811  0.60332353     0.36500
C683        C  0.01636976  0.89641952  0.58179380     0.06000
F684        F  0.99528960  0.85601298  0.53461681    -0.19800
H685        H  0.96265786  0.86121259  0.54491873     0.15900
F686        F  0.96445536  0.94884360  0.62508307    -0.23500
H687        H  0.99685522  0.94179701  0.61655631     0.17700
C688        C  0.02792151  0.90521801  0.55309210     0.25700
C689        C  0.04554826  0.90365821  0.55953939    -0.12000
C690        C  0.05193803  0.89266284  0.59445923    -0.26100
C691        C  0.04020793  0.88180377  0.62206441     0.36600
C692        C  0.02273932  0.88426807  0.61593512    -0.27700
F693        F  0.02218525  0.91597409  0.51925651    -0.19800
H694        H  0.05416037  0.91182599  0.53754360     0.15900
F695        F  0.04553176  0.86809715  0.65490132    -0.23500
H696        H  0.01406758  0.87657863  0.63807510     0.17700
C697        C  0.88318022  0.90006053  0.71034442    -0.27600
C698        C  0.89145908  0.91636884  0.73982470     0.06000
C699        C  0.90841999  0.92613394  0.73442213     0.25700
C700        C  0.91686097  0.91958351  0.70038479    -0.12100
C701        C  0.90861658  0.90318538  0.67062269    -0.26000
C702        C  0.89147948  0.89401539  0.67608623     0.36500
C703        C  0.88225534  0.92384493  0.77565113     0.06000
F704        F  0.91667855  0.94332117  0.76148678    -0.19800
H705        H  0.92963398  0.92869301  0.69748121     0.15900
F706        F  0.88260297  0.87943222  0.64799185    -0.23500
H707        H  0.87016382  0.89204135  0.71373608     0.17700
C708        C  0.86582425  0.93750211  0.77525248     0.25700
C709        C  0.85749550  0.94518435  0.80906894    -0.12000
C710        C  0.86534487  0.93972218  0.84406624    -0.26100
C711        C  0.88166640  0.92553579  0.84449167     0.36600
C712        C  0.88994954  0.91764577  0.81065155    -0.27700
F713        F  0.85801065  0.94457891  0.74216071    -0.19800
H714        H  0.84502360  0.95628864  0.80770815     0.15900
F715        F  0.88953634  0.91853227  0.87750873    -0.23500
H716        H  0.90240489  0.90641826  0.81183252     0.17700
C717        C  0.02497248  0.37692485  0.43672186    -0.27600
C718        C  0.01498236  0.40116783  0.41900247     0.06000
C719        C  0.02333144  0.42585498  0.39798042     0.25700
C720        C  0.04098930  0.42508074  0.39315620    -0.12100
C721        C  0.05086192  0.39968867  0.40887468    -0.26000
C722        C  0.04267267  0.37606154  0.43171862     0.36500
C723        C  0.99596441  0.39922446  0.41987268     0.06000
F724        F  0.01437451  0.44966024  0.37996808    -0.19800
H725        H  0.04691855  0.44396836  0.37599934     0.15900
F726        F  0.05151820  0.35084778  0.44728646    -0.23500
H727        H  0.01899547  0.35795181  0.45366226     0.17700
C728        C  0.98755573  0.36934354  0.41216248     0.25700
C729        C  0.96982772  0.36838720  0.40888235    -0.12000
C730        C  0.96007731  0.39702182  0.41320624    -0.26100
C731        C  0.96827875  0.42664516  0.42200073     0.36600
C732        C  0.98601452  0.42765838  0.42549743    -0.27700
F733        F  0.99650287  0.34141010  0.40533583    -0.19800
H734        H  0.96374548  0.34546978  0.40130631     0.15900
F735        F  0.95917315  0.45480356  0.42591718    -0.23500
H736        H  0.99200399  0.45091078  0.43184283     0.17700
C737        C  0.93762955  0.20550333  0.42050498    -0.27600
C738        C  0.92332787  0.21766457  0.43984355     0.06000
C739        C  0.91056550  0.19532629  0.45104007     0.25700
C740        C  0.91161745  0.16209144  0.44061705    -0.12100
C741        C  0.92543020  0.15066383  0.41925672    -0.26000
C742        C  0.93865533  0.17240854  0.41015990     0.36500
C743        C  0.92077145  0.25394031  0.44227500     0.06000
F744        F  0.89671822  0.20593011  0.47044023    -0.19800
H745        H  0.90119749  0.14569723  0.44731511     0.15900
F746        F  0.95184284  0.16229262  0.38828718    -0.23500
H747        H  0.94745129  0.22213452  0.41075557     0.17700
C748        C  0.93410325  0.27510864  0.45260383     0.25700
C749        C  0.93291767  0.30903457  0.44575238    -0.12000
C750        C  0.91848717  0.32237179  0.42834623    -0.26100
C751        C  0.90450785  0.30167771  0.42165872     0.36600
C752        C  0.90571072  0.26784496  0.42836450    -0.27700
F753        F  0.94860530  0.26277452  0.46755922    -0.19800
H754        H  0.94374858  0.32446270  0.45176386     0.15900
F755        F  0.88991820  0.31391942  0.40699363    -0.23500
H756        H  0.89522962  0.25226883  0.42015778     0.17700
C757        C  0.90445838  0.45419688  0.28065682    -0.27600
C758        C  0.89517780  0.43302756  0.25740263     0.06000
C759        C  0.89464645  0.39932871  0.26643419     0.25700
C760        C  0.90210841  0.38761066  0.29961148    -0.12100
C761        C  0.91052703  0.40916583  0.32438579    -0.26000
C762        C  0.91222899  0.44245679  0.31335096     0.36500
C763        C  0.88584034  0.44656176  0.22447001     0.06000
F764        F  0.88693827  0.37759611  0.24311397    -0.19800
H765        H  0.90094728  0.36168973  0.30541812     0.15900
F766        F  0.92072712  0.46416816  0.33532989    -0.23500
H767        H  0.90525624  0.48021340  0.27417672     0.17700
C768        C  0.86876052  0.43830163  0.21811022     0.25700
C769        C  0.85997375  0.45207228  0.18777143    -0.12000
C770        C  0.86784772  0.47483273  0.16341733    -0.26100
C771        C  0.88487015  0.48354231  0.17023646     0.36600
C772        C  0.89372726  0.46936764  0.20027794    -0.27700
F773        F  0.86030640  0.41787687  0.24201523    -0.19800
H774        H  0.84691733  0.44485128  0.18354364     0.15900
F775        F  0.89289610  0.50652795  0.14887471    -0.23500
H776        H  0.90680367  0.47643203  0.20480425     0.17700
C777        C  0.98589329  0.54424725  0.63084318    -0.27600
C778        C  0.99441588  0.56393497  0.60430916     0.06000
C779        C  0.98481467  0.58351780  0.57967189     0.25700
C780        C  0.96707426  0.58503876  0.58334836    -0.12100
C781        C  0.95852589  0.56739159  0.61193821    -0.26000
C782        C  0.96817741  0.54548211  0.63433509     0.36500
C783        C  0.01322710  0.56664325  0.60546420     0.06000
F784        F  0.99267475  0.60272656  0.55355403    -0.19800
H785        H  0.96021957  0.60108008  0.56462368     0.15900
F786        F  0.96059607  0.52500377  0.65956722    -0.23500
H787        H  0.99305179  0.52839205  0.64954801     0.17700
C788        C  0.02094974  0.58128082  0.63678898     0.25700
C789        C  0.03858231  0.58434794  0.63846839    -0.12000
C790        C  0.04910188  0.57229154  0.60934411    -0.26100
C791        C  0.04133846  0.55781222  0.57769075     0.36600
C792        C  0.02353755  0.55522919  0.57573807    -0.27700
F793        F  0.01136151  0.59309648  0.66568133    -0.19800
H794        H  0.04399329  0.59642728  0.66277712     0.15900
F795        F  0.05089138  0.54510202  0.54932555    -0.23500
H796        H  0.01780809  0.54380445  0.55135978     0.17700
C797        C  0.93606861  0.76801807  0.57761720    -0.27600
C798        C  0.92166122  0.75223829  0.56284273     0.06000
C799        C  0.90828861  0.77209059  0.54917545     0.25700
C800        C  0.90890393  0.80647467  0.55279135    -0.12100
C801        C  0.92295397  0.82180594  0.56927011    -0.26000
C802        C  0.93674481  0.80235400  0.58068759     0.36500
C803        C  0.91994137  0.71556498  0.56615026     0.06000
F804        F  0.89433351  0.75827011  0.53354520    -0.19800
H805        H  0.89801640  0.82104210  0.54450454     0.15900
F806        F  0.95025788  0.81637975  0.59791210    -0.23500
H807        H  0.94640361  0.75372938  0.58924256     0.17700
C808        C  0.93381275  0.69424793  0.55974130     0.25700
C809        C  0.93277157  0.66075627  0.56944932    -0.12000
C810        C  0.91790047  0.64765239  0.58539454    -0.26100
C811        C  0.90358828  0.66830998  0.58861901     0.36600
C812        C  0.90469893  0.70180134  0.57965163    -0.27700
F813        F  0.94858620  0.70591678  0.54516308    -0.19800
H814        H  0.94393245  0.64568758  0.56652416     0.15900
F815        F  0.88862962  0.65640212  0.60199755    -0.23500
H816        H  0.89379125  0.71725173  0.58529314     0.17700
C817        C  0.90566304  0.59510042  0.76156596    -0.27600
C818        C  0.89051674  0.57818821  0.76868576     0.06000
C819        C  0.88304507  0.55990662  0.73981120     0.25700
C820        C  0.89060307  0.55853548  0.70421233    -0.12100
C821        C  0.90592739  0.57530622  0.69647284    -0.26000
C822        C  0.91319478  0.59411249  0.72574846     0.36500
C823        C  0.88246387  0.57924088  0.80626337     0.06000
F824        F  0.86836606  0.54326558  0.74610432    -0.19800
H825        H  0.88381522  0.54518847  0.68288792     0.15900
F826        F  0.92737065  0.61229251  0.71947470    -0.23500
H827        H  0.91146838  0.60960125  0.78360362     0.17700
C828        C  0.89037761  0.56440445  0.83725196     0.25700
C829        C  0.88186706  0.56215606  0.87180943    -0.12000
C830        C  0.86533708  0.57483268  0.87613586    -0.26100
C831        C  0.85778679  0.59117569  0.84533279     0.36600
C832        C  0.86626651  0.59303738  0.81064978    -0.27700
F833        F  0.90597989  0.55057464  0.83351517    -0.19800
H834        H  0.88806011  0.54932802  0.89470583     0.15900
F835        F  0.84227710  0.60543203  0.84851555    -0.23500
H836        H  0.86010842  0.60489678  0.78696188     0.17700
C837        C  0.98697060  0.50919462  0.50323929    -0.27600
C838        C  0.99521497  0.47917880  0.50992831     0.06000
C839        C  0.98575778  0.45106067  0.51927471     0.25700
C840        C  0.96818151  0.45295877  0.52116958    -0.12100
C841        C  0.95991994  0.48275140  0.51335577    -0.26000
C842        C  0.96938274  0.51099909  0.50467871     0.36500
C843        C  0.01369896  0.47749808  0.50733731     0.06000
F844        F  0.99346653  0.42159855  0.52514751    -0.19800
H845        H  0.96099392  0.43090946  0.52755777     0.15900
F846        F  0.96165787  0.54033172  0.49815574    -0.23500
H847        H  0.99418320  0.53122750  0.49693594     0.17700
C848        C  0.02220197  0.48964871  0.47534466     0.25700
C849        C  0.03981714  0.48949450  0.47410951    -0.12000
C850        C  0.04911869  0.47719081  0.50469896    -0.26100
C851        C  0.04053332  0.46420268  0.53630877     0.36600
C852        C  0.02293098  0.46456784  0.53756249    -0.27700
F853        F  0.01347901  0.50164047  0.44536384    -0.19800
H854        H  0.04617049  0.49918482  0.44929451     0.15900
F855        F  0.04906105  0.45222828  0.56658047    -0.23500
H856        H  0.01649100  0.45550053  0.56258456     0.17700
C857        C  0.79245242  0.51061535  0.52361088    -0.27600
C858        C  0.80129772  0.48325176  0.50945236     0.06000
C859        C  0.79205219  0.45616075  0.49604617     0.25700
C860        C  0.77430728  0.45675493  0.49639737    -0.12100
C861        C  0.76543158  0.48411427  0.51057811    -0.26000
C862        C  0.77470325  0.51108773  0.52434474     0.36500
C863        C  0.82012349  0.48309381  0.50898240     0.06000
F864        F  0.80017141  0.42940959  0.48183891    -0.19800
H865        H  0.76749503  0.43561284  0.48580372     0.15900
F866        F  0.76668329  0.53837149  0.53739421    -0.23500
H867        H  0.79933240  0.53164584  0.53430895     0.17700
C868        C  0.82927896  0.50903692  0.49226807     0.25700
C869        C  0.84703268  0.50890832  0.49261538    -0.12000
C870        C  0.85602925  0.48305497  0.50984089    -0.26100
C871        C  0.84679697  0.45691583  0.52626386     0.36600
C872        C  0.82905394  0.45703396  0.52573664    -0.27700
F873        F  0.82105207  0.53425535  0.47503685    -0.19800
H874        H  0.85373820  0.52925863  0.47959515     0.15900
F875        F  0.85483926  0.43103770  0.54261856    -0.23500
H876        H  0.82224564  0.43687532  0.53890690     0.17700
C877        C  0.64319450  0.40285305  0.30576843    -0.27600
C878        C  0.62858296  0.42103307  0.29682258     0.06000
C879        C  0.62219587  0.44376256  0.32311322     0.25700
C880        C  0.63048620  0.44862267  0.35734240    -0.12100
C881        C  0.64535161  0.43109739  0.36599886    -0.26000
C882        C  0.65154482  0.40778887  0.34002754     0.36500
C883        C  0.62027506  0.41698308  0.25974750     0.06000
F884        F  0.60832977  0.46229026  0.31505038    -0.19800
H885        H  0.62552564  0.46697424  0.37654871     0.15900
F886        F  0.66547880  0.38941293  0.34788944    -0.23500
H887        H  0.64814011  0.38479358  0.28614735     0.17700
C888        C  0.62966454  0.41959923  0.22616720     0.25700
C889        C  0.62155518  0.41728806  0.19138054    -0.12000
C890        C  0.60381933  0.41308686  0.18893380    -0.26100
C891        C  0.59462198  0.40849446  0.22295836     0.36600
C892        C  0.60279854  0.41092160  0.25778061    -0.27700
F893        F  0.64661969  0.42538819  0.22691991    -0.19800
H894        H  0.62921679  0.41925730  0.16601890     0.15900
F895        F  0.57805231  0.39981322  0.22338393    -0.23500
H896        H  0.59547105  0.40754348  0.28344567     0.17700
C897        C  0.64159486  0.58155815  0.70130333    -0.27600
C898        C  0.62612767  0.56725055  0.71208749     0.06000
C899        C  0.61870746  0.54361829  0.68849825     0.25700
C900        C  0.62714154  0.53335694  0.65566305    -0.12100
C901        C  0.64307584  0.54653980  0.64577614    -0.26000
C902        C  0.64997563  0.57151618  0.66849090     0.36500
C903        C  0.61858727  0.57544214  0.74927598     0.06000
F904        F  0.60376878  0.52923787  0.69820353    -0.19800
H905        H  0.62145829  0.51419227  0.63878331     0.15900
F906        F  0.66477461  0.58649788  0.65908541    -0.23500
H907        H  0.64733518  0.60030061  0.71875629     0.17700
C908        C  0.62825540  0.57160825  0.78208891     0.25700
C909        C  0.62132277  0.57910208  0.81727601    -0.12000
C910        C  0.60430469  0.58949683  0.82110832    -0.26100
C911        C  0.59502856  0.59549672  0.78770847     0.36600
C912        C  0.60201385  0.58782003  0.75229898    -0.27700
F913        F  0.64440393  0.56001324  0.78021205    -0.19800
H914        H  0.62952775  0.57681578  0.84147983     0.15900
F915        F  0.57940408  0.60948822  0.78893269    -0.23500
H916        H  0.59459186  0.59210581  0.72711740     0.17700
C917        C  0.79678055  0.96031166  0.49635307    -0.27600
C918        C  0.80582788  0.97971114  0.47053595     0.06000
C919        C  0.79701679  0.99772635  0.44310808     0.25700
C920        C  0.77929062  0.99698313  0.44224206    -0.12100
C921        C  0.77005188  0.97799474  0.46850603    -0.26000
C922        C  0.77907966  0.95908819  0.49522073     0.36500
C923        C  0.82447033  0.98120273  0.47256249     0.06000
F924        F  0.80556084  0.01678430  0.41790174    -0.19800
H925        H  0.77284692  0.01191024  0.42144267     0.15900
F926        F  0.77096919  0.93889117  0.51988962    -0.23500
H927        H  0.80348588  0.94588371  0.51728184     0.17700
C928        C  0.83242046  0.99599289  0.50350128     0.25700
C929        C  0.85010589  0.99741876  0.50519658    -0.12000
C930        C  0.86014489  0.98363175  0.47636551    -0.26100
C931        C  0.85207529  0.96859513  0.44546055     0.36600
C932        C  0.83437528  0.96768102  0.44356056    -0.27700
F933        F  0.82305212  0.00940506  0.53180596    -0.19800
H934        H  0.85594389  0.00900148  0.52935330     0.15900
F935        F  0.86121757  0.95509513  0.41685410    -0.23500
H936        H  0.82835782  0.95613491  0.41958842     0.17700
C937        C  0.60843722  0.22071531  0.03849849    -0.27600
C938        C  0.59416599  0.24070699  0.04582095     0.06000
C939        C  0.57871011  0.22503411  0.05534376     0.25700
C940        C  0.57815169  0.19097559  0.06119619    -0.12100
C941        C  0.59295285  0.17201838  0.05875680    -0.26000
C942        C  0.60798732  0.18684766  0.04594196     0.36500
C943        C  0.59603328  0.27728886  0.04969804     0.06000
F944        F  0.56452282  0.24272579  0.06318680    -0.19800
H945        H  0.56650731  0.17997536  0.07152869     0.15900
F946        F  0.62253758  0.16905054  0.04355942    -0.23500
H947        H  0.62032908  0.23160222  0.02958487     0.17700
C948        C  0.61014203  0.29070278  0.06860052     0.25700
C949        C  0.61022220  0.32370420  0.07946424    -0.12000
C950        C  0.59610798  0.34410731  0.07314424    -0.26100
C951        C  0.58261878  0.33165140  0.05153678     0.36600
C952        C  0.58278526  0.29879002  0.03941627    -0.27700
F953        F  0.62328413  0.27149780  0.07984586    -0.19800
H954        H  0.62101289  0.33274858  0.09511173     0.15900
F955        F  0.56859059  0.35005874  0.04479418    -0.23500
H956        H  0.57202388  0.28972129  0.02372616     0.17700
C957        C  0.64673634  0.08765556  0.28125747    -0.27600
C958        C  0.62907015  0.08317370  0.28109079     0.06000
C959        C  0.62122263  0.06869698  0.31272170     0.25700
C960        C  0.63096520  0.05794893  0.34322693    -0.12100
C961        C  0.64872393  0.06142318  0.34294209    -0.26000
C962        C  0.65648884  0.07708588  0.31183311     0.36500
C963        C  0.61920280  0.09148828  0.24678644     0.06000
F964        F  0.60412685  0.06483017  0.31410579    -0.19800
H965        H  0.62455908  0.04615302  0.36669634     0.15900
F966        F  0.67346227  0.08249381  0.31083964    -0.23500
H967        H  0.65309616  0.09859018  0.25714339     0.17700
C968        C  0.62146570  0.12167546  0.22806797     0.25700
C969        C  0.61372944  0.12747744  0.19325169    -0.12000
C970        C  0.60345668  0.10330179  0.17619423    -0.26100
C971        C  0.60043736  0.07388765  0.19642454     0.36600
C972        C  0.60831996  0.06804044  0.23100701    -0.27700
F973        F  0.63131657  0.14554754  0.24328406    -0.19800
H974        H  0.61629607  0.15082450  0.18004446     0.15900
F975        F  0.59036676  0.05003173  0.18191729    -0.23500
H976        H  0.60642376  0.04448688  0.24475257     0.17700
C977        C  0.59629828  0.79928247  0.95207620    -0.27600
C978        C  0.58954010  0.77790253  0.92472687     0.06000
C979        C  0.58392917  0.79130804  0.89029616     0.25700
C980        C  0.58555055  0.82478345  0.88298948    -0.12100
C981        C  0.59309073  0.84586434  0.90926816    -0.26000
C982        C  0.59800506  0.83316269  0.94446960     0.36500
C983        C  0.58926848  0.74150407  0.93005342     0.06000
F984        F  0.57788035  0.77174981  0.86244221    -0.19800
H985        H  0.58152430  0.83413408  0.85579738     0.15900
F986        F  0.60521971  0.85307003  0.97052426    -0.23500
H987        H  0.60058218  0.78963423  0.97890116     0.17700
C988        C  0.60412622  0.72396254  0.93933718     0.25700
C989        C  0.60473581  0.68962097  0.93505805    -0.12000
C990        C  0.59064169  0.67243378  0.92125348    -0.26100
C991        C  0.57566140  0.68978897  0.91349680     0.36600
C992        C  0.57482858  0.72371896  0.91914761    -0.27700
F993        F  0.61847512  0.74017047  0.94918077    -0.19800
H994        H  0.61653899  0.67671165  0.94015900     0.15900
F995        F  0.56244756  0.67464882  0.89645427    -0.23500
H996        H  0.56323566  0.73654574  0.91188157     0.17700
C997        C  0.65347544  0.95082503  0.70140549    -0.27600
C998        C  0.63574046  0.95299604  0.70365657     0.06000
C999        C  0.62666942  0.96349743  0.67181473     0.25700
C1000       C  0.63521854  0.97091998  0.63815420    -0.12100
C1001       C  0.65301123  0.96831479  0.63551707    -0.26000
C1002       C  0.66207397  0.95849323  0.66793517     0.36500
C1003       C  0.62688345  0.94403232  0.73925803     0.06000
F1004       F  0.60948771  0.96563143  0.67288208    -0.19800
H1005       H  0.62776060  0.97819402  0.61399883     0.15900
F1006       F  0.67924807  0.95681665  0.66798984    -0.23500
H1007       H  0.66073692  0.94342806  0.72588426     0.17700
C1008       C  0.63006999  0.91368577  0.75683686     0.25700
C1009       C  0.62223216  0.90574300  0.79110034    -0.12000
C1010       C  0.61082664  0.92775169  0.80876935    -0.26100
C1011       C  0.60782284  0.95837491  0.79097036     0.36600
C1012       C  0.61564199  0.96618857  0.75653688    -0.27700
F1013       F  0.64079731  0.89153833  0.74079583    -0.19800
H1014       H  0.62574850  0.88261411  0.80373227     0.15900
F1015       F  0.59751627  0.98112127  0.80723674    -0.23500
H1016       H  0.61322997  0.98997671  0.74377551     0.17700
C1017       C  0.33531613  0.03457992  0.96141583    -0.27600
C1018       C  0.32553025  0.01379716  0.98447701     0.06000
C1019       C  0.33378928  0.99013535  0.00691282     0.25700
C1020       C  0.35150767  0.98754077  0.00617912    -0.12100
C1021       C  0.36133164  0.00831701  0.98295553    -0.26000
C1022       C  0.35297181  0.03198218  0.96054693     0.36500
C1023       C  0.30675123  0.01638340  0.98358537     0.06000
F1024       F  0.32473840  0.96883432  0.02862264    -0.19800
H1025       H  0.35752261  0.96906951  0.02368653     0.15900
F1026       F  0.36176600  0.05277920  0.93770654    -0.23500
H1027       H  0.32923717  0.05305860  0.94400684     0.17700
C1028       C  0.29708449  0.01889141  0.01690728     0.25700
C1029       C  0.27939567  0.02138618  0.01515515    -0.12000
C1030       C  0.27097892  0.02175089  0.98020761    -0.26100
C1031       C  0.28077576  0.02013847  0.94687898     0.36600
C1032       C  0.29840905  0.01728991  0.94870763    -0.27700
F1033       F  0.30473487  0.01978532  0.05111682    -0.19800
H1034       H  0.27231932  0.02277616  0.04134092     0.15900
F1035       F  0.27349728  0.02214672  0.91236427    -0.23500
H1036       H  0.30560661  0.01574261  0.92264612     0.17700
C1037       C  0.68369852  0.03630966  0.97936710    -0.27600
C1038       C  0.69243977  0.01151625  0.99889665     0.06000
C1039       C  0.68318446  0.98783232  0.01926448     0.25700
C1040       C  0.66548472  0.98871790  0.01956428    -0.12100
C1041       C  0.65662882  0.01319981  0.99956605    -0.26000
C1042       C  0.66595845  0.03730002  0.97970579     0.36500
C1043       C  0.71118837  0.01020396  0.99782468     0.06000
F1044       F  0.69125612  0.96316054  0.03785949    -0.19800
H1045       H  0.65871552  0.96974701  0.03496891     0.15900
F1046       F  0.65802385  0.06178400  0.96052965    -0.23500
H1047       H  0.69065210  0.05499722  0.96389702     0.17700
C1048       C  0.71999939  0.00884103  0.96331894     0.25700
C1049       C  0.73768989  0.00614776  0.96279120    -0.12000
C1050       C  0.74694595  0.00484854  0.99661517    -0.26100
C1051       C  0.73801199  0.00661130  0.03117596     0.36600
C1052       C  0.72034633  0.00928982  0.03159423    -0.27700
F1053       F  0.71146068  0.00905355  0.93014869    -0.19800
H1054       H  0.74411234  0.00506459  0.93576351     0.15900
F1055       F  0.74612681  0.00458947  0.06473909    -0.23500
H1056       H  0.71375180  0.01039776  0.05846242     0.17700
C1057       C  0.49042730  0.96537629  0.98852764    -0.27600
C1058       C  0.50009765  0.99335749  0.98021537     0.06000
C1059       C  0.49212522  0.02350776  0.97255697     0.25700
C1060       C  0.47458833  0.02564205  0.97363381    -0.12100
C1061       C  0.46490959  0.99797635  0.98317233    -0.26000
C1062       C  0.47285383  0.96761612  0.99007186     0.36500
C1063       C  0.51853341  0.99161119  0.98110093     0.06000
F1064       F  0.50131786  0.05105880  0.96525885    -0.19800
H1065       H  0.46858423  0.04907902  0.96776851     0.15900
F1066       F  0.46364249  0.94006119  0.99720209    -0.23500
H1067       H  0.49651501  0.94188624  0.99371057     0.17700
C1068       C  0.52674602  0.98107095  0.01396029     0.25700
C1069       C  0.54421922  0.98415463  0.01671984    -0.12000
C1070       C  0.55358575  0.99766592  0.98670976    -0.26100
C1071       C  0.54542188  0.00630715  0.95296570     0.36600
C1072       C  0.52795890  0.00345006  0.95038066    -0.27700
F1073       F  0.51778456  0.96983450  0.04416818    -0.19800
H1074       H  0.55033014  0.97702907  0.04280803     0.15900
F1075       F  0.55422693  0.01776266  0.92264346    -0.23500
H1076       H  0.52175291  0.01143879  0.92477579     0.17700
C1077       C  0.21929541  0.96263116  0.51081026    -0.27600
C1078       C  0.21036083  0.98813727  0.49295847     0.06000
C1079       C  0.21940179  0.01442873  0.47683255     0.25700
C1080       C  0.23711164  0.01473340  0.47786829    -0.12100
C1081       C  0.24614108  0.98910758  0.49543419    -0.26000
C1082       C  0.23703004  0.96313820  0.51235064     0.36500
C1083       C  0.19161853  0.98740463  0.49178184     0.06000
F1084       F  0.21111827  0.03943598  0.45932427    -0.19800
H1085       H  0.24376666  0.03520118  0.46498454     0.15900
F1086       F  0.24519164  0.93770050  0.52925791    -0.23500
H1087       H  0.21248855  0.94233365  0.52370397     0.17700
C1088       C  0.18300660  0.96076432  0.47553112     0.25700
C1089       C  0.16526299  0.95984150  0.47580980    -0.12000
C1090       C  0.15581296  0.98537009  0.49248982    -0.26100
C1091       C  0.16453486  0.01244551  0.50793104     0.36600
C1092       C  0.18224735  0.01333095  0.50750593    -0.27700
F1093       F  0.19177033  0.93587869  0.45895115    -0.19800
H1094       H  0.15892994  0.93895004  0.46327468     0.15900
F1095       F  0.15602113  0.03827396  0.52321658    -0.23500
H1096       H  0.18869460  0.03413155  0.51998292     0.17700
C1097       C  0.48664207  0.09094184  0.05922688    -0.27600
C1098       C  0.49645700  0.09881855  0.09108739     0.06000
C1099       C  0.48791409  0.10421513  0.12555461     0.25700
C1100       C  0.47022600  0.10325762  0.12764283    -0.12100
C1101       C  0.46030210  0.09554532  0.09596485    -0.26000
C1102       C  0.46881259  0.08896846  0.06164251     0.36500
C1103       C  0.51543027  0.10207935  0.08894165     0.06000
F1104       F  0.49665976  0.10985959  0.15779428    -0.19800
H1105       H  0.46435100  0.10890754  0.15450387     0.15900
F1106       F  0.46005784  0.07983655  0.03058904    -0.23500
H1107       H  0.49273140  0.08662136  0.03225053     0.17700
C1108       C  0.52577648  0.07920833  0.06950165     0.25700
C1109       C  0.54359369  0.08130641  0.07149516    -0.12000
C1110       C  0.55137315  0.10572746  0.09341557    -0.26100
C1111       C  0.54111534  0.12929475  0.11134959     0.36600
C1112       C  0.52345389  0.12780938  0.10849644    -0.27700
F1113       F  0.51876408  0.05385518  0.05027475    -0.19800
H1114       H  0.55129781  0.06293254  0.05738437     0.15900
F1115       F  0.54819888  0.15370878  0.13203545    -0.23500
H1116       H  0.51599230  0.14662402  0.12242844     0.17700
C1117       C  0.36595595  0.08274386  0.28659254    -0.27600
C1118       C  0.38245594  0.07083843  0.28088569     0.06000
C1119       C  0.39023999  0.05187278  0.30896189     0.25700
C1120       C  0.38143002  0.04438519  0.34217250    -0.12100
C1121       C  0.36470322  0.05559401  0.34774608    -0.26000
C1122       C  0.35711804  0.07533464  0.31980607     0.36500
C1123       C  0.39072922  0.07533733  0.24399550     0.06000
F1124       F  0.40605967  0.03946132  0.30351108    -0.19800
H1125       H  0.38754026  0.02890064  0.36297061     0.15900
F1126       F  0.34125992  0.08770719  0.32458093    -0.23500
H1127       H  0.35982907  0.09732557  0.26493847     0.17700
C1128       C  0.38555641  0.05612330  0.21354050     0.25700
C1129       C  0.39298346  0.06035240  0.17812863    -0.12000
C1130       C  0.40592040  0.08387469  0.17218005    -0.26100
C1131       C  0.41101307  0.10319176  0.20329545     0.36600
C1132       C  0.40353103  0.09875985  0.23886381    -0.27700
F1133       F  0.37321564  0.03314795  0.21812732    -0.19800
H1134       H  0.38804580  0.04525358  0.15591450     0.15900
F1135       F  0.42311616  0.12669098  0.19918006    -0.29900
H1136       H  0.40756725  0.11385498  0.26230048     0.17700
C1137       C  0.49416190  0.88943477  0.89431368    -0.27600
C1138       C  0.50197740  0.92055706  0.89601319     0.06000
C1139       C  0.49147436  0.94873102  0.89470972     0.25700
C1140       C  0.47380174  0.94568270  0.89187182    -0.12100
C1141       C  0.46616719  0.91463541  0.88959227    -0.26000
C1142       C  0.47650451  0.88648065  0.89067295     0.36500
C1143       C  0.52098884  0.92320172  0.89601914     0.06000
F1144       F  0.49822018  0.97934965  0.89548960    -0.19800
H1145       H  0.46607188  0.96769761  0.89016838     0.15900
F1146       F  0.46966831  0.85620913  0.88562545    -0.23500
H1147       H  0.50181085  0.86729193  0.89377291     0.17700
C1148       C  0.53112462  0.90243743  0.91859456     0.25700
C1149       C  0.54890364  0.90280081  0.91517693    -0.12000
C1150       C  0.55709556  0.92409255  0.88955310    -0.26100
C1151       C  0.54697638  0.94621054  0.86866477     0.36600
C1152       C  0.52923386  0.94538549  0.87155341    -0.27700
F1153       F  0.52385998  0.88154648  0.94385735    -0.19800
H1154       H  0.55619075  0.88550339  0.93179382     0.15900
F1155       F  0.55415447  0.96883898  0.84535190    -0.23500
H1156       H  0.52192924  0.96163132  0.85363310     0.17700
C1157       C  0.38989573  0.91840720  0.76129295    -0.27600
C1158       C  0.39954163  0.92595075  0.72913696     0.06000
C1159       C  0.41728699  0.92802578  0.73226497     0.25700
C1160       C  0.42513972  0.92326965  0.76720464    -0.12100
C1161       C  0.41543541  0.91625708  0.79977400    -0.26000
C1162       C  0.39766940  0.91332763  0.79598953     0.36500
C1163       C  0.39077486  0.93339999  0.69322953     0.06000
F1164       F  0.42706692  0.93442854  0.70147502    -0.19800
H1165       H  0.43875888  0.92524878  0.76807952     0.15900
F1166       F  0.38768926  0.90620878  0.82627921    -0.23500
H1167       H  0.37618797  0.91722900  0.75980827     0.17700
C1168       C  0.37751718  0.91326875  0.68027872     0.25700
C1169       C  0.36800737  0.92266187  0.64889728    -0.12000
C1170       C  0.37167187  0.95198147  0.62953707    -0.26100
C1171       C  0.38531497  0.97155365  0.64169474     0.36600
C1172       C  0.39468574  0.96234586  0.67335012    -0.27700
F1173       F  0.37371557  0.88455544  0.69804576    -0.19800
H1174       H  0.35775564  0.90693569  0.63970290     0.15900
F1175       F  0.38906000  0.00049644  0.62440632    -0.23500
H1176       H  0.40459674  0.97857780  0.68321606     0.17700
C1177       C  0.21618930  0.49118673  0.53605440    -0.27600
C1178       C  0.20769570  0.48593284  0.50194481     0.06000
C1179       C  0.21725313  0.48213125  0.46867209     0.25700
C1180       C  0.23496637  0.48426577  0.46959400    -0.12100
C1181       C  0.24356361  0.49006466  0.50370851    -0.26000
C1182       C  0.23387567  0.49303350  0.53713796     0.36500
C1183       C  0.18889048  0.48515116  0.50140744     0.06000
F1184       F  0.20948102  0.47589008  0.43535190    -0.19800
H1185       H  0.24187195  0.48168313  0.44332424     0.15900
F1186       F  0.24130798  0.49721254  0.57117539    -0.23500
H1187       H  0.20906493  0.49423699  0.56203458     0.17700
C1188       C  0.17981034  0.46502859  0.52668509     0.25700
C1189       C  0.16209055  0.46550530  0.52705224    -0.12000
C1190       C  0.15300227  0.48606727  0.50231120    -0.26100
C1191       C  0.16214098  0.50613700  0.47687056     0.36600
C1192       C  0.17989474  0.50556077  0.47648871    -0.27700
F1193       F  0.18807316  0.44448746  0.55065999    -0.19800
H1194       H  0.15548754  0.44962405  0.54681875     0.15900
F1195       F  0.15401301  0.52632914  0.45231213    -0.23500
H1196       H  0.18665595  0.52153882  0.45708281     0.17700
C1197       C  0.48829863  0.39527104  0.07240039    -0.27600
C1198       C  0.49804127  0.41794702  0.09283305     0.06000
C1199       C  0.48965959  0.44071246  0.11622361     0.25700
C1200       C  0.47199763  0.43950117  0.12061411    -0.12100
C1201       C  0.46227296  0.41576183  0.10162251    -0.26000
C1202       C  0.47059352  0.39426616  0.07645938     0.36500
C1203       C  0.51689331  0.41566117  0.09272355     0.06000
F1204       F  0.49863567  0.46281414  0.13666434    -0.19800
H1205       H  0.46593765  0.45673474  0.13966537     0.15900
F1206       F  0.46184786  0.37089314  0.05751070    -0.23500
H1207       H  0.49449703  0.37760887  0.05408956     0.17700
C1208       C  0.52489635  0.38624950  0.10394333     0.25700
C1209       C  0.54253604  0.38491713  0.10790295    -0.12000
C1210       C  0.55253694  0.41266038  0.10034992    -0.26100
C1211       C  0.54471379  0.44177124  0.08786271     0.36600
C1212       C  0.52699236  0.44327336  0.08421262    -0.27700
F1213       F  0.51557077  0.35931100  0.11313740    -0.19800
H1214       H  0.54839782  0.36242183  0.11792299     0.15900
F1215       F  0.55413550  0.46905949  0.08086315    -0.23500
H1216       H  0.52110908  0.46614570  0.07546234     0.17700
C1217       C  0.40844974  0.29385086  0.04882005    -0.27600
C1218       C  0.42106586  0.27218345  0.06210919     0.06000
C1219       C  0.43485910  0.28536676  0.08220351     0.25700
C1220       C  0.43550408  0.31896240  0.09036882    -0.12100
C1221       C  0.42247105  0.34013276  0.07886551    -0.26000
C1222       C  0.40906918  0.32754910  0.05737613     0.36500
C1223       C  0.41900328  0.23575879  0.05921396     0.06000
F1224       F  0.44698657  0.26541705  0.09688281    -0.19800
H1225       H  0.44566147  0.32815713  0.10791229     0.15900
F1226       F  0.39609770  0.34745336  0.04673132    -0.23500
H1227       H  0.39774932  0.28445121  0.03314917     0.17700
C1228       C  0.40386329  0.22054267  0.07116524     0.25700
C1229       C  0.40317999  0.18639205  0.07602433    -0.12000
C1230       C  0.41760573  0.16658742  0.06987561    -0.26100
C1231       C  0.43229336  0.18149133  0.05484971     0.36600
C1232       C  0.43288010  0.21566708  0.04936500    -0.27700
F1233       F  0.39016286  0.23878672  0.08141525    -0.19800
H1234       H  0.39156343  0.17563353  0.08683195     0.15900
F1235       F  0.44661719  0.16375924  0.04862652    -0.23500
H1236       H  0.44458897  0.22669595  0.03945185     0.17700
C1237       C  0.36789877  0.44330047  0.29093677    -0.27600
C1238       C  0.38562868  0.44194223  0.29302342     0.06000
C1239       C  0.39366972  0.45158810  0.32640548     0.25700
C1240       C  0.38402839  0.46215470  0.35733555    -0.12100
C1241       C  0.36618696  0.46371261  0.35544244    -0.26000
C1242       C  0.35823412  0.45427825  0.32154429     0.36500
C1243       C  0.39551687  0.43177998  0.25949446     0.06000
F1244       F  0.41082395  0.45031477  0.32926577    -0.19800
H1245       H  0.39063676  0.46887891  0.38283116     0.15900
F1246       F  0.34120224  0.45648760  0.31710968    -0.23500
H1247       H  0.36152600  0.43654277  0.26507430     0.17700
C1248       C  0.39248223  0.40134759  0.24230688     0.25700
C1249       C  0.40025806  0.39356430  0.20797777    -0.12000
C1250       C  0.41125425  0.41606470  0.18978950    -0.26100
C1251       C  0.41464508  0.44619774  0.20809868     0.36600
C1252       C  0.40693635  0.45376539  0.24261250    -0.27700
F1253       F  0.38163256  0.37940108  0.25834554    -0.19800
H1254       H  0.39681542  0.37038797  0.19551280     0.15900
F1255       F  0.42485765  0.46908313  0.19174866    -0.23500
H1256       H  0.40928802  0.47752579  0.25534677     0.17700
C1257       C  0.48957481  0.57658480  0.87618778    -0.27600
C1258       C  0.49736174  0.58839859  0.90911947     0.06000
C1259       C  0.48666854  0.60187265  0.93726155     0.25700
C1260       C  0.46901949  0.60415864  0.93179139    -0.12100
C1261       C  0.46122424  0.59183127  0.89895992    -0.26000
C1262       C  0.47194442  0.57697300  0.87171942     0.36500
C1263       C  0.51647303  0.58722491  0.91272259     0.06000
F1264       F  0.49307838  0.61247532  0.97051782    -0.19800
H1265       H  0.46160421  0.61593994  0.95360372     0.15900
F1266       F  0.46566915  0.56172381  0.84084866    -0.23500
H1267       H  0.49711797  0.56697590  0.85315291     0.17700
C1268       C  0.52609972  0.56171297  0.89592131     0.25700
C1269       C  0.54381765  0.56367973  0.89366308    -0.12000
C1270       C  0.55268158  0.59018032  0.90951422    -0.26100
C1271       C  0.54333797  0.61333992  0.93065450     0.36600
C1272       C  0.52549660  0.61252502  0.93100264    -0.27700
F1273       F  0.51850038  0.53477215  0.88116704    -0.19800
H1274       H  0.55065019  0.54442550  0.87893829     0.15900
F1275       F  0.55124459  0.63773357  0.94967607    -0.23500
H1276       H  0.51885885  0.63265619  0.94442417     0.17700
C1277       C  0.40867475  0.71832710  0.94648791    -0.27600
C1278       C  0.42333592  0.73594557  0.93600173     0.06000
C1279       C  0.43793701  0.71810739  0.92527972     0.25700
C1280       C  0.43729951  0.68377097  0.92194359    -0.12100
C1281       C  0.42211121  0.66675471  0.92869734    -0.26000
C1282       C  0.40796117  0.68410542  0.94231692     0.36500
C1283       C  0.42251533  0.77238424  0.93068450     0.06000
F1284       F  0.45227385  0.73396377  0.91421631    -0.19800
H1285       H  0.44821731  0.67082454  0.91064426     0.15900
F1286       F  0.39307892  0.66824755  0.94878321    -0.23500
H1287       H  0.39736715  0.73132995  0.95552591     0.17700
C1288       C  0.40917442  0.78638191  0.90982066     0.25700
C1289       C  0.40942073  0.81969058  0.90020965    -0.12000
C1290       C  0.42314430  0.83999800  0.91006858    -0.26100
C1291       C  0.43590847  0.82663864  0.93330619     0.36600
C1292       C  0.43559514  0.79311854  0.94328637    -0.27700
F1293       F  0.39644661  0.76742736  0.89615885    -0.19800
H1294       H  0.39909140  0.82925467  0.88338785     0.15900
F1295       F  0.44918026  0.84519633  0.94475421    -0.23500
H1296       H  0.44587058  0.78311711  0.95995065     0.17700
C1297       C  0.36450834  0.57407307  0.71283337    -0.27600
C1298       C  0.38207120  0.56867887  0.71482003     0.06000
C1299       C  0.39042238  0.55454418  0.68368517     0.25700
C1300       C  0.38130705  0.54596307  0.65136332    -0.12100
C1301       C  0.36366685  0.55124994  0.64927618    -0.26000
C1302       C  0.35537747  0.56560743  0.68055526     0.36500
C1303       C  0.39139315  0.57714749  0.74982917     0.06000
F1304       F  0.40745227  0.54955714  0.68422397    -0.19800
H1305       H  0.38814198  0.53491783  0.62806883     0.15900
F1306       F  0.33852255  0.57224295  0.68003118    -0.23500
H1307       H  0.35777070  0.58466460  0.73659974     0.17700
C1308       C  0.38948019  0.60818295  0.76669774     0.25700
C1309       C  0.39723776  0.61510695  0.80120480    -0.12000
C1310       C  0.40722014  0.59126413  0.81984929    -0.26100
C1311       C  0.40948661  0.56047695  0.80199943     0.36600
C1312       C  0.40164724  0.55359461  0.76758923    -0.27700
F1313       F  0.38010869  0.63198442  0.74970229    -0.19800
H1314       H  0.39501179  0.63915893  0.81287601     0.15900
F1315       F  0.41899126  0.53656193  0.81841377    -0.23500
H1316       H  0.40321702  0.52939754  0.75530387     0.17700
C1317       C  0.33172415  0.52810590  0.02537639    -0.27600
C1318       C  0.32297065  0.50064421  0.01160685     0.06000
C1319       C  0.33224647  0.47406537  0.99674784     0.25700
C1320       C  0.34995198  0.47521595  0.99527012    -0.12100
C1321       C  0.35877744  0.50276853  0.00877877    -0.26000
C1322       C  0.34945098  0.52925511  0.02406377     0.36500
C1323       C  0.30418702  0.50032672  0.01142263     0.06000
F1324       F  0.32417830  0.44674538  0.98418091    -0.19800
H1325       H  0.35676935  0.45432646  0.98380339     0.15900
F1326       F  0.35737269  0.55662097  0.03694180    -0.23500
H1327       H  0.32478946  0.54900479  0.03648812     0.17700
C1328       C  0.29476244  0.50646419  0.04445353     0.25700
C1329       C  0.27701885  0.50608784  0.04356467    -0.12000
C1330       C  0.26837401  0.49991193  0.00971332    -0.26100
C1331       C  0.27787768  0.49368655  0.97671856     0.36600
C1332       C  0.29557662  0.49396660  0.97769416    -0.27700
F1333       F  0.30270231  0.51221450  0.07768379    -0.19800
H1334       H  0.27004928  0.51101363  0.06934510     0.15900
F1335       F  0.27017320  0.48638221  0.94365003    -0.23500
H1336       H  0.30261113  0.48933217  0.95190481     0.17700
C1337       C  0.68345255  0.49352992  0.99835729    -0.27600
C1338       C  0.69084213  0.51659650  0.02254038     0.06000
C1339       C  0.68040962  0.53741383  0.04395530     0.25700
C1340       C  0.66277202  0.53527048  0.04104475    -0.12100
C1341       C  0.65519533  0.51249204  0.01646301    -0.26000
C1342       C  0.66578774  0.49148871  0.99510911     0.36500
C1343       C  0.70945473  0.51970849  0.02432645     0.06000
F1344       F  0.68731484  0.55976995  0.06774211    -0.19800
H1345       H  0.65504908  0.55171073  0.05793536     0.15900
F1346       F  0.65917962  0.46918256  0.97085382    -0.23500
H1347       H  0.69141205  0.47744044  0.98153363     0.17700
C1348       C  0.71925163  0.49641720  0.04378702     0.25700
C1349       C  0.73691853  0.49960972  0.04495575    -0.12000
C1350       C  0.74506774  0.52579511  0.02624624    -0.26100
C1351       C  0.73513670  0.54928857  0.00710584     0.36600
C1352       C  0.71747592  0.54625519  0.00636882    -0.27700
F1353       F  0.71170775  0.47073890  0.06175753    -0.19800
H1354       H  0.74425079  0.48119690  0.05985119     0.15900
F1355       F  0.74240947  0.57560919  0.98985230    -0.23500
H1356       H  0.71001699  0.56454067  0.99154246     0.17700
C1357       C  0.48960961  0.51827058  0.02989795    -0.27600
C1358       C  0.49771851  0.51335479  0.99510035     0.06000
C1359       C  0.48818129  0.50561913  0.96305327     0.25700
C1360       C  0.47066559  0.50254746  0.96598817    -0.12100
C1361       C  0.46254056  0.50728711  0.00084661    -0.26000
C1362       C  0.47209963  0.51536551  0.03285000     0.36500
C1363       C  0.51623008  0.51383136  0.99341415     0.06000
F1364       F  0.49580189  0.50111309  0.92904501    -0.19800
H1365       H  0.46343054  0.49686906  0.94092922     0.15900
F1366       F  0.46460997  0.51953082  0.06710226    -0.23500
H1367       H  0.49691392  0.52353938  0.05498386     0.17700
C1368       C  0.52525668  0.54086283  0.00731198     0.25700
C1369       C  0.54281535  0.53926279  0.00994166    -0.12000
C1370       C  0.55152274  0.51077050  0.99862717    -0.26100
C1371       C  0.54249917  0.48417214  0.98346872     0.36600
C1372       C  0.52492108  0.48575331  0.98102084    -0.27700
F1373       F  0.51706568  0.56854821  0.01871096    -0.19800
H1374       H  0.54960605  0.56028071  0.02096012     0.15900
F1375       F  0.55053592  0.45616149  0.97263739    -0.23500
H1376       H  0.51802031  0.46456215  0.97079596     0.17700
loop_ 
_geom_bond_atom_site_label_1 
_geom_bond_atom_site_label_2 
_geom_bond_distance 
_geom_bond_site_symmetry_2 
_ccdc_geom_bond_type 
O1           Cu9   1.977       .  S
O1           C11   1.275       .  A
O2           Cu9   2.006       .  S
O2           C12   1.278       .  A
O3           Cu9   2.020   1_556  S
O3           C13   1.276       .  A
O4           Cu9   2.017       .  S
O4           C14   1.280       .  A
O5          Cu10   2.002   1_554  S
O5           C14   1.275       .  A
O6          Cu10   1.994       .  S
O6           C13   1.279       .  A
O7          Cu10   2.015       .  S
O7           C12   1.279   1_556  A
O8          Cu10   1.989       .  S
O8           C11   1.276   1_556  A
Cu9         Cu10   2.372   1_554  S
C11        C1370   1.460   1_554  S
C12        C1341   1.487       .  S
C13         C203   1.477       .  S
C14         C215   1.473       .  S
O15         Cu23   2.012   1_554  S
O15          C25   1.276       .  A
O16         Cu23   2.007       .  S
O16          C26   1.279       .  A
O17         Cu23   1.987       .  S
O17          C27   1.276   1_556  A
O18         Cu23   2.013       .  S
O18          C28   1.279   1_556  A
O19         Cu24   2.004       .  S
O19          C28   1.277       .  A
O20         Cu24   1.974       .  S
O20          C27   1.274       .  A
O21         Cu24   2.023   1_556  S
O21          C26   1.278       .  A
O22         Cu24   2.016       .  S
O22          C25   1.280       .  A
Cu23        Cu24   2.370   1_556  S
C25          C48   1.476       .  S
C26          C36   1.479       .  S
C27        C1361   1.458       .  S
C28        C1321   1.482       .  S
C29          C30   1.540       .  S
C29          C35   1.531       .  S
C29          C33   1.539       .  S
C29        C1310   1.536       .  S
C30          H37   1.082       .  S
C30          C31   1.364       .  D
C31        C1281   1.479       .  S
C31          C32   1.541       .  S
C32          C36   1.548       .  S
C32          C34   1.556       .  S
C32          H38   1.107       .  S
C33          H39   1.081       .  S
C33          C34   1.377       .  D
C34        C1261   1.518       .  S
C35          H40   1.087       .  S
C35          C36   1.360       .  D
C41          C42   1.542       .  S
C41          C47   1.533       .  S
C41          C45   1.541       .  S
C41        C1250   1.531       .  S
C42          H49   1.082       .  S
C42          C43   1.362       .  D
C43        C1221   1.479       .  S
C43          C44   1.539       .  S
C44          C48   1.547       .  S
C44          C46   1.547       .  S
C44          H50   1.110       .  S
C45          H51   1.086       .  S
C45          C46   1.371       .  D
C46        C1201   1.495       .  S
C47          H52   1.087       .  S
C47          C48   1.361       .  D
N53          N54   1.320       .  A
N53          C57   1.343       .  A
N53         Cu61   2.069       .  S
N54          C55   1.344       .  A
N54         Cu60   2.075       .  S
C55          C56   1.390       .  A
C55          H58   1.081       .  S
C56        C1241   1.490       .  S
C56          C57   1.389       .  A
C57          H59   1.080       .  S
Cu60         N63   2.076       .  S
Cu61         N71   2.069       .  S
Cu62         N64   2.080       .  S
Cu62         N70   2.079       .  S
N63          N64   1.321       .  A
N63          C67   1.345       .  A
N64          C65   1.345       .  A
C65          C66   1.391       .  A
C65          H68   1.080       .  S
C66        C1301   1.492       .  S
C66          C67   1.389       .  A
C67          H69   1.081       .  S
N70          N71   1.320       .  A
N70          C74   1.344       .  A
N71          C72   1.344       .  A
C72          C73   1.389       .  A
C72          H75   1.081       .  S
C73        C1181   1.492       .  S
C73          C74   1.391       .  A
C74          H76   1.079       .  S
C77          C78   1.530       .  S
C77          C83   1.531       .  S
C77          C81   1.543       .  S
C77        C1161   1.526       .  S
C78          H85   1.087       .  S
C78          C79   1.358       .  D
C79         C149   1.478       .  S
C79          C80   1.554       .  S
C80          C84   1.550       .  S
C80          C82   1.549       .  S
C80          H86   1.109       .  S
C81          H87   1.082       .  S
C81          C82   1.367       .  D
C82        C1141   1.486       .  S
C83          H88   1.086       .  S
C83          C84   1.369       .  D
C84        C1290   1.500       .  S
C89          C90   1.533       .  S
C89          C95   1.530       .  S
C89          C93   1.537       .  S
C89        C1130   1.532       .  S
C90          H97   1.080       .  S
C90          C91   1.359       .  D
C91         C150   1.479       .  S
C91          C92   1.549       .  S
C92          C96   1.550       .  S
C92          C94   1.554       .  S
C92          H98   1.107       .  S
C93          H99   1.085       .  S
C93          C94   1.374       .  D
C94        C1101   1.506       .  S
C95         H100   1.086       .  S
C95          C96   1.368       .  D
C96        C1230   1.497       .  S
N101        N102   1.321       .  A
N101        C105   1.346       .  A
N101       Cu109   2.081       .  S
N102        C103   1.341       .  A
N102       Cu108   2.054   1_565  S
C103        C104   1.381       .  A
C103        H106   1.081       .  S
C104       C1170   1.477       .  S
C104        C105   1.387       .  A
C105        H107   1.082       .  S
Cu108       N111   2.054       .  S
Cu109       N119   2.082       .  S
Cu110       N112   2.072       .  S
Cu110       N118   2.072   1_545  S
N111        N112   1.319       .  A
N111        C115   1.341       .  A
N112        C113   1.345       .  A
C113        C114   1.389       .  A
C113        H116   1.081       .  S
C114       C1121   1.479       .  S
C114        C115   1.383       .  A
C115        H117   1.082       .  S
N118        N119   1.323       .  A
N118        C122   1.342   1_565  A
N119        C120   1.347       .  A
C120        C121   1.388       .  A
C120        H123   1.081       .  S
C121       C1081   1.482       .  S
C121        C122   1.384   1_565  A
C122        H124   1.082       .  S
O125       Cu133   2.027   1_556  S
O125        C135   1.278       .  A
O126       Cu133   2.024   1_545  S
O126        C136   1.281       .  A
O127       Cu133   1.967       .  S
O127        C137   1.273   1_564  A
O128       Cu133   2.000       .  S
O128        C138   1.278   1_564  A
O129       Cu134   2.008       .  S
O129        C138   1.278       .  A
O130       Cu134   1.978       .  S
O130        C137   1.275       .  A
O131       Cu134   2.007   1_554  S
O131        C136   1.275       .  A
O132       Cu134   1.997   1_565  S
O132        C135   1.278       .  A
Cu133      Cu134   2.371   1_564  S
C135        C160   1.477       .  S
C136        C172   1.477       .  S
C137       C1070   1.456   1_545  S
C138       C1041   1.482       .  S
O139       Cu147   2.008   1_556  S
O139        C149   1.275       .  A
O140       Cu147   2.001   1_545  S
O140        C150   1.280       .  A
O141       Cu147   2.016       .  S
O141        C151   1.279   1_564  A
O142       Cu147   1.979       .  S
O142        C152   1.275   1_564  A
O143       Cu148   1.969       .  S
O143        C152   1.274       .  A
O144       Cu148   2.002       .  S
O144        C151   1.277       .  A
O145       Cu148   2.024   1_554  S
O145        C150   1.276       .  A
O146       Cu148   2.018   1_565  S
O146        C149   1.282       .  A
Cu147      Cu148   2.373   1_564  S
C151       C1021   1.486       .  S
C152       C1061   1.451   1_545  S
C153        C154   1.538       .  S
C153        C159   1.527       .  S
C153        C157   1.543       .  S
C153       C1010   1.534       .  S
C154        H161   1.082       .  S
C154        C155   1.366       .  D
C155        C981   1.485       .  S
C155        C156   1.541       .  S
C156        C160   1.550       .  S
C156        C158   1.551       .  S
C156        H162   1.110       .  S
C157        H163   1.085       .  S
C157        C158   1.374       .  D
C158       C1150   1.504       .  S
C159        H164   1.087       .  S
C159        C160   1.361       .  D
C165        C166   1.543       .  S
C165        C171   1.535       .  S
C165        C169   1.539       .  S
C165        C970   1.532       .  S
C166        H173   1.081       .  S
C166        C167   1.364       .  D
C167        C941   1.479       .  S
C167        C168   1.540       .  S
C168        C172   1.549       .  S
C168        C170   1.543       .  S
C168        H174   1.111       .  S
C169        H175   1.086       .  S
C169        C170   1.368       .  D
C170       C1110   1.489       .  S
C171        H176   1.087       .  S
C171        C172   1.361       .  D
N177        N178   1.322       .  A
N177        C181   1.345       .  A
N177       Cu185   2.079       .  S
N178        C179   1.344       .  A
N178       Cu184   2.075       .  S
C179        C180   1.386       .  A
C179        H182   1.081       .  S
C180        C961   1.486       .  S
C180        C181   1.389       .  A
C181        H183   1.081       .  S
Cu184       N187   2.075   1_545  S
Cu185       N195   2.078   1_545  S
Cu186       N188   2.066       .  S
Cu186       N194   2.066       .  S
N187        N188   1.319       .  A
N187        C191   1.345       .  A
N188        C189   1.343       .  A
C189        C190   1.390       .  A
C189        H192   1.079       .  S
C190       C1001   1.492       .  S
C190        C191   1.391       .  A
C191        H193   1.081   1_565  S
N194        N195   1.320       .  A
N194        C198   1.342       .  A
N195        C196   1.346       .  A
C196        C197   1.390       .  A
C196        H199   1.081       .  S
C197        C921   1.487       .  S
C197        C198   1.387       .  A
C198        H200   1.080       .  S
C201        C202   1.533       .  S
C201        C207   1.529       .  S
C201        C205   1.546       .  S
C201        C910   1.534       .  S
C202        H209   1.085       .  S
C202        C203   1.360       .  D
C203        C204   1.551       .  S
C204        C208   1.546       .  S
C204        C206   1.549       .  S
C204        H210   1.110       .  S
C205        H211   1.084       .  S
C205        C206   1.374       .  D
C206       C1270   1.503       .  S
C207        H212   1.087       .  S
C207        C208   1.364       .  D
C208        C990   1.480       .  S
C213        C214   1.536       .  S
C213        C219   1.532       .  S
C213        C217   1.546       .  S
C213        C890   1.532       .  S
C214        H221   1.087       .  S
C214        C215   1.361       .  D
C215        C216   1.545       .  S
C216        C220   1.545       .  S
C216        C218   1.540       .  S
C216        H222   1.110       .  S
C217        H223   1.081       .  S
C217        C218   1.366       .  D
C218       C1210   1.480       .  S
C219        H224   1.086       .  S
C219        C220   1.368       .  D
C220        C950   1.496       .  S
N225        N226   1.322       .  A
N225        C229   1.345       .  A
N225       Cu233   2.074       .  S
N226        C227   1.343       .  A
N226       Cu232   2.069       .  S
C227        C228   1.385       .  A
C227        H230   1.082       .  S
C228        C881   1.480       .  S
C228        C229   1.387       .  A
C229        H231   1.082       .  S
Cu232       N235   2.069       .  S
Cu233       N243   2.074       .  S
Cu234       N236   2.079       .  S
Cu234       N242   2.079       .  S
N235        N236   1.321       .  A
N235        C239   1.346       .  A
N236        C237   1.344       .  A
C237        C238   1.389       .  A
C237        H240   1.081       .  S
C238        C901   1.486       .  S
C238        C239   1.387       .  A
C239        H241   1.082       .  S
N242        N243   1.322       .  A
N242        C246   1.346       .  A
N243        C244   1.345       .  A
C244        C245   1.385       .  A
C244        H247   1.082       .  S
C245        C861   1.483       .  S
C245        C246   1.387       .  A
C246        H248   1.081       .  S
O249       Cu257   2.013       .  S
O249        C259   1.275       .  A
O250       Cu257   1.997       .  S
O250        C260   1.278       .  A
O251       Cu257   1.989       .  S
O251        C261   1.277       .  A
O252       Cu257   2.017       .  S
O252        C262   1.279       .  A
O253       Cu258   2.000       .  S
O253        C262   1.277       .  A
O254       Cu258   1.971       .  S
O254        C261   1.273       .  A
O255       Cu258   2.018       .  S
O255        C260   1.277       .  A
O256       Cu258   2.014       .  S
O256        C259   1.281       .  A
Cu257      Cu258   2.371       .  S
C259        C408   1.477       .  S
C260        C420   1.474       .  S
C261        C850   1.462       .  S
C262       C1190   1.485       .  S
O263       Cu271   2.007       .  S
O263        C273   1.278       .  A
O264       Cu271   1.974       .  S
O264        C274   1.274       .  A
O265       Cu271   2.018       .  S
O265        C275   1.282       .  A
O266       Cu271   2.021       .  S
O266        C276   1.277       .  A
O267       Cu272   1.996       .  S
O267        C276   1.278       .  A
O268       Cu272   2.001       .  S
O268        C275   1.274       .  A
O269       Cu272   1.986       .  S
O269        C274   1.276       .  A
O270       Cu272   2.017       .  S
O270        C273   1.280       .  A
Cu271      Cu272   2.373       .  S
C273        C870   1.486       .  S
C274        C841   1.455       .  S
C275        C279   1.475       .  S
C276        C291   1.475       .  S
C277        C278   1.538       .  S
C277        C283   1.527       .  S
C277        C281   1.540       .  S
C277        C821   1.530       .  S
C278        H285   1.082       .  S
C278        C279   1.359       .  D
C279        C280   1.550       .  S
C280        C284   1.551       .  S
C280        C282   1.555       .  S
C280        H286   1.109       .  S
C281        H287   1.084       .  S
C281        C282   1.375       .  D
C282        C781   1.507       .  S
C283        H288   1.086       .  S
C283        C284   1.363       .  D
C284        C810   1.497       .  S
C289        C290   1.529       .  S
C289        C295   1.542       .  S
C289        C293   1.539       .  S
C289        C761   1.532       .  S
C290        H297   1.087       .  S
C290        C291   1.359       .  D
C291        C292   1.548       .  S
C292        C296   1.545       .  S
C292        C294   1.545       .  S
C292        H298   1.111       .  S
C293        H299   1.086       .  S
C293        C294   1.366       .  D
C294        C730   1.486       .  S
C295        H300   1.081       .  S
C295        C296   1.371       .  D
C296        C750   1.490       .  S
N301        N302   1.320       .  A
N301        C305   1.344       .  A
N301       Cu309   2.075       .  S
N302        C303   1.344       .  A
N302       Cu308   2.068       .  S
C303        C304   1.388       .  A
C303        H306   1.080       .  S
C304        C770   1.487       .  S
C304        C305   1.389       .  A
C305        H307   1.081       .  S
Cu308       N311   2.067   1_554  S
Cu309       N319   2.076       .  S
Cu310       N312   2.074       .  S
Cu310       N318   2.074   1_556  S
N311        N312   1.320       .  A
N311        C315   1.343       .  A
N312        C313   1.345       .  A
C313        C314   1.389       .  A
C313        H316   1.081       .  S
C314        C830   1.485       .  S
C314        C315   1.387       .  A
C315        H317   1.081       .  S
N318        N319   1.322       .  A
N318        C322   1.344   1_554  A
N319        C320   1.345       .  A
C320        C321   1.386       .  A
C320        H323   1.082       .  S
C321       C1350   1.482       .  S
C321        C322   1.386   1_554  A
C322        H324   1.081       .  S
C325        C326   1.531       .  S
C325        C331   1.528       .  S
C325        C329   1.549       .  S
C325        C701   1.534       .  S
C326        H333   1.087       .  S
C326        C327   1.362       .  D
C327        C801   1.483       .  S
C327        C328   1.548       .  S
C328        C332   1.554       .  S
C328        C330   1.549       .  S
C328        H334   1.110       .  S
C329        H335   1.081       .  S
C329        C330   1.374       .  D
C330        C681   1.505       .  S
C331        H336   1.087       .  S
C331        C332   1.362       .  D
C332        C398   1.483       .  S
C337        C338   1.542       .  S
C337        C343   1.533       .  S
C337        C341   1.539       .  S
C337        C661   1.533       .  S
C338        H345   1.082       .  S
C338        C339   1.364       .  D
C339        C741   1.478       .  S
C339        C340   1.540       .  S
C340        C344   1.549       .  S
C340        C342   1.551       .  S
C340        H346   1.109       .  S
C341        H347   1.086       .  S
C341        C342   1.373       .  D
C342        C641   1.503       .  S
C343        H348   1.087       .  S
C343        C344   1.360       .  D
C344        C397   1.478       .  S
N349        N350   1.323       .  A
N349        C353   1.346       .  A
N349       Cu357   2.081       .  S
N350        C351   1.346       .  A
N350       Cu356   2.082       .  S
C351        C352   1.388       .  A
C351        H354   1.081       .  S
C352        C710   1.488       .  S
C352        C353   1.388       .  A
C353        H355   1.082       .  S
Cu356       N359   2.081   1_566  S
Cu357       N367   2.080       .  S
Cu358       N360   2.064       .  S
Cu358       N366   2.064       .  S
N359        N360   1.319       .  A
N359        C363   1.346       .  A
N360        C361   1.342       .  A
C361        C362   1.391       .  A
C361        H364   1.078       .  S
C362        C670   1.497       .  S
C362        C363   1.394       .  A
C363        H365   1.080       .  S
N366        N367   1.320   1_544  A
N366        C370   1.342       .  A
N367        C368   1.346       .  A
C368        C369   1.390   1_565  A
C368        H371   1.081       .  S
C369       C1050   1.487       .  S
C369        C370   1.387   1_556  A
C370        H372   1.080       .  S
O373       Cu381   2.017       .  S
O373        C383   1.280       .  A
O374       Cu381   1.983       .  S
O374        C384   1.276       .  A
O375       Cu381   2.001       .  S
O375        C385   1.279   1_565  A
O376       Cu381   2.016       .  S
O376        C386   1.275       .  A
O377       Cu382   2.003   1_565  S
O377        C386   1.280       .  A
O378       Cu382   2.011       .  S
O378        C385   1.275       .  A
O379       Cu382   1.965       .  S
O379        C384   1.273   1_545  A
O380       Cu382   1.997       .  S
O380        C383   1.276   1_545  A
Cu381      Cu382   2.372   1_565  S
C383       C1090   1.483       .  S
C384        C621   1.452       .  S
C385        C463   1.472       .  S
C386        C451   1.477       .  S
O387       Cu395   2.016       .  S
O387        C397   1.276       .  A
O388       Cu395   2.010   1_565  S
O388        C398   1.280       .  A
O389       Cu395   1.978       .  S
O389        C399   1.274   1_545  A
O390       Cu395   2.009       .  S
O390        C400   1.279   1_545  A
O391       Cu396   2.001       .  S
O391        C400   1.277       .  A
O392       Cu396   1.965       .  S
O392        C399   1.274       .  A
O393       Cu396   2.026       .  S
O393        C398   1.277       .  A
O394       Cu396   2.019   1_545  S
O394        C397   1.280       .  A
Cu395      Cu396   2.373   1_545  S
C399        C630   1.451       .  S
C400        C930   1.480       .  S
C401        C402   1.534       .  S
C401        C407   1.525       .  S
C401        C405   1.545       .  S
C401        C610   1.528       .  S
C402        H409   1.087       .  S
C402        C403   1.364       .  D
C403        C581   1.481       .  S
C403        C404   1.545       .  S
C404        C408   1.553       .  S
C404        C406   1.550       .  S
C404        H410   1.110       .  S
C405        H411   1.080       .  S
C405        C406   1.370       .  D
C406        C790   1.501       .  S
C407        H412   1.087       .  S
C407        C408   1.359       .  D
C413        C414   1.532       .  S
C413        C419   1.527       .  S
C413        C417   1.547       .  S
C413        C561   1.528       .  S
C414        H421   1.087       .  S
C414        C415   1.361       .  D
C415        C541   1.474       .  S
C415        C416   1.541       .  S
C416        C420   1.547       .  S
C416        C418   1.549       .  S
C416        H422   1.110       .  S
C417        H423   1.083       .  S
C417        C418   1.373       .  D
C418        C721   1.500       .  S
C419        H424   1.087       .  S
C419        C420   1.361       .  D
N425        N426   1.321   1_554  A
N425        C429   1.345       .  A
N425       Cu433   2.073       .  S
N426        C427   1.342       .  A
N426       Cu432   2.065       .  S
C427        C428   1.385   1_556  A
C427        H430   1.081       .  S
C428       C1330   1.482       .  S
C428        C429   1.387       .  A
C429        H431   1.082       .  S
Cu432       N435   2.065       .  S
Cu433       N443   2.073       .  S
Cu434       N436   2.071   1_554  S
Cu434       N442   2.071       .  S
N435        N436   1.321       .  A
N435        C439   1.344       .  A
N436        C437   1.343       .  A
C437        C438   1.385       .  A
C437        H440   1.082       .  S
C438        C601   1.477       .  S
C438        C439   1.383       .  A
C439        H441   1.082       .  S
N442        N443   1.321       .  A
N442        C446   1.345       .  A
N443        C444   1.343       .  A
C444        C445   1.387       .  A
C444        H447   1.082       .  S
C445        C570   1.484       .  S
C445        C446   1.387       .  A
C446        H448   1.081       .  S
C449        C450   1.522       .  S
C449        C455   1.534       .  S
C449        C453   1.546       .  S
C449        C521   1.530       .  S
C450        H457   1.088       .  S
C450        C451   1.356       .  D
C451        C452   1.554       .  S
C452        C456   1.547       .  S
C452        C454   1.550       .  S
C452        H458   1.110       .  S
C453        H459   1.080       .  S
C453        C454   1.373       .  D
C454        C690   1.504       .  S
C455        H460   1.086       .  S
C455        C456   1.369       .  D
C456        C590   1.491       .  S
C461        C462   1.535       .  S
C461        C467   1.532       .  S
C461        C465   1.540       .  S
C461        C510   1.531       .  S
C462        H469   1.080       .  S
C462        C463   1.358       .  D
C463        C464   1.544       .  S
C464        C468   1.545       .  S
C464        C466   1.548       .  S
C464        H470   1.108       .  S
C465        H471   1.086       .  S
C465        C466   1.373       .  D
C466        C650   1.501       .  S
C467        H472   1.086       .  S
C467        C468   1.367       .  D
C468        C550   1.491       .  S
N473        N474   1.321       .  A
N473        C477   1.345       .  A
N473       Cu481   2.076   1_565  S
N474        C475   1.343       .  A
N474       Cu480   2.065   1_565  S
C475        C476   1.384       .  A
C475        H478   1.082       .  S
C476        C530   1.481       .  S
C476        C477   1.387       .  A
C477        H479   1.081       .  S
Cu480       N483   2.065   1_556  S
Cu481       N491   2.076       .  S
Cu482       N484   2.070       .  S
Cu482       N490   2.071   1_554  S
N483        N484   1.321       .  A
N483        C487   1.343       .  A
N484        C485   1.344       .  A
C485        C486   1.385       .  A
C485        H488   1.081       .  S
C486        C501   1.477       .  S
C486        C487   1.384       .  A
C487        H489   1.082       .  S
N490        N491   1.321       .  A
N490        C494   1.344   1_556  A
N491        C492   1.344       .  A
C492        C493   1.389       .  A
C492        H495   1.080       .  S
C493       C1030   1.487       .  S
C493        C494   1.388   1_556  A
C494        H496   1.081       .  S
C497        C498   1.400       .  A
C497        C502   1.398       .  A
C497        H507   1.083       .  S
C498        C503   1.468       .  S
C498        C499   1.401       .  A
C499        C500   1.395       .  A
C499        F504   1.357       .  S
C500        C501   1.406       .  A
C500        H505   1.083       .  S
C501        C502   1.409       .  A
C502        F506   1.357       .  S
C503        C508   1.398       .  A
C503        C512   1.398       .  A
C508        C509   1.394       .  A
C508        F513   1.358       .  S
C509        C510   1.414       .  A
C509        H514   1.074       .  S
C510        C511   1.415       .  A
C511        C512   1.398       .  A
C511        F515   1.358       .  S
C512        H516   1.083       .  S
C517        C518   1.401       .  A
C517        C522   1.395       .  A
C517        H527   1.083       .  S
C518        C523   1.483       .  S
C518        C519   1.405       .  A
C519        C520   1.399       .  A
C519        F524   1.358       .  S
C520        C521   1.411       .  A
C520        H525   1.077       .  S
C521        C522   1.414       .  A
C522        F526   1.358       .  S
C523        C528   1.405       .  A
C523        C532   1.405       .  A
C528        C529   1.397       .  A
C528        F533   1.357       .  S
C529        C530   1.406       .  A
C529        H534   1.083       .  S
C530        C531   1.407       .  A
C531        C532   1.398       .  A
C531        F535   1.357       .  S
C532        H536   1.083       .  S
C537        C538   1.409       .  A
C537        C542   1.403       .  A
C537        H547   1.083       .  S
C538        C543   1.491       .  S
C538        C539   1.411       .  A
C539        C540   1.396       .  A
C539        F544   1.357       .  S
C540        C541   1.399       .  A
C540        H545   1.084       .  S
C541        C542   1.403       .  A
C542        F546   1.357       .  S
C543        C548   1.409       .  A
C543        C552   1.406       .  A
C548        C549   1.399       .  A
C548        F553   1.357       .  S
C549        C550   1.407       .  A
C549        H554   1.083       .  S
C550        C551   1.408       .  A
C551        C552   1.399       .  A
C551        F555   1.356       .  S
C552        H556   1.083       .  S
C557        C558   1.401       .  A
C557        C562   1.394       .  A
C557        H567   1.083       .  S
C558        C563   1.483       .  S
C558        C559   1.405       .  A
C559        C560   1.400       .  A
C559        F564   1.358       .  S
C560        C561   1.411       .  A
C560        H565   1.079       .  S
C561        C562   1.414       .  A
C562        F566   1.358       .  S
C563        C568   1.406       .  A
C563        C572   1.404       .  A
C568        C569   1.395       .  A
C568        F573   1.358       .  S
C569        C570   1.405       .  A
C569        H574   1.082       .  S
C570        C571   1.410       .  A
C571        C572   1.400       .  A
C571        F575   1.356       .  S
C572        H576   1.083       .  S
C577        C578   1.407       .  A
C577        C582   1.400       .  A
C577        H587   1.083       .  S
C578        C583   1.495       .  S
C578        C579   1.412       .  A
C579        C580   1.404       .  A
C579        F584   1.357       .  S
C580        C581   1.402       .  A
C580        H585   1.083       .  S
C581        C582   1.404       .  A
C582        F586   1.357       .  S
C583        C588   1.411       .  A
C583        C592   1.406       .  A
C588        C589   1.404       .  A
C588        F593   1.357       .  S
C589        C590   1.405       .  A
C589        H594   1.083       .  S
C590        C591   1.408       .  A
C591        C592   1.399       .  A
C591        F595   1.358       .  S
C592        H596   1.083       .  S
C597        C598   1.403       .  A
C597        C602   1.395       .  A
C597        H607   1.083       .  S
C598        C603   1.480       .  S
C598        C599   1.406       .  A
C599        C600   1.398       .  A
C599        F604   1.358       .  S
C600        C601   1.405       .  A
C600        H605   1.083       .  S
C601        C602   1.406       .  A
C602        F606   1.357       .  S
C603        C608   1.403       .  A
C603        C612   1.401       .  A
C608        C609   1.394       .  A
C608        F613   1.358       .  S
C609        C610   1.410       .  A
C609        H614   1.076       .  S
C610        C611   1.414       .  A
C611        C612   1.398       .  A
C611        F615   1.358       .  S
C612        H616   1.083       .  S
C617        C618   1.400       .  A
C617        C622   1.387       .  A
C617        H627   1.084       .  S
C618        C623   1.451   1_455  S
C618        C619   1.400       .  A
C619        C620   1.387       .  A
C619        F624   1.358       .  S
C620        C621   1.403       .  A
C620        H625   1.083       .  S
C621        C622   1.403       .  A
C622        F626   1.358       .  S
C623        C628   1.401   1_565  A
C623        C632   1.398       .  A
C628        C629   1.389       .  A
C628        F633   1.358       .  S
C629        C630   1.402   1_545  A
C629        H634   1.083       .  S
C630        C631   1.404       .  A
C631        C632   1.383       .  A
C631        F635   1.358       .  S
C632        H636   1.083       .  S
C637        C638   1.405   1_655  A
C637        C642   1.408       .  A
C637        H647   1.083       .  S
C638        C643   1.489       .  S
C638        C639   1.404   1_455  A
C639        C640   1.399       .  A
C639        F644   1.358   1_655  S
C640        C641   1.409       .  A
C640        H645   1.083       .  S
C641        C642   1.414       .  A
C642        F646   1.356       .  S
C643        C648   1.405       .  A
C643        C652   1.405       .  A
C648        C649   1.398       .  A
C648        F653   1.358       .  S
C649        C650   1.408       .  A
C649        H654   1.083       .  S
C650        C651   1.413       .  A
C651        C652   1.409       .  A
C651        F655   1.356       .  S
C652        H656   1.083       .  S
C657        C658   1.401       .  A
C657        C662   1.397       .  A
C657        H667   1.083       .  S
C658        C663   1.484       .  S
C658        C659   1.404       .  A
C659        C660   1.399       .  A
C659        F664   1.358       .  S
C660        C661   1.413       .  A
C660        H665   1.076       .  S
C661        C662   1.413       .  A
C662        F666   1.358       .  S
C663        C668   1.404       .  A
C663        C672   1.401       .  A
C668        C669   1.400       .  A
C668        F673   1.357       .  S
C669        C670   1.410       .  A
C669        H674   1.080       .  S
C670        C671   1.415       .  A
C671        C672   1.397       .  A
C671        F675   1.354       .  S
C672        H676   1.083       .  S
C677        C678   1.402       .  A
C677        C682   1.401       .  A
C677        H687   1.083       .  S
C678        C683   1.491   1_655  S
C678        C679   1.407       .  A
C679        C680   1.409       .  A
C679        F684   1.357       .  S
C680        C681   1.410       .  A
C680        H685   1.082       .  S
C681        C682   1.412       .  A
C682        F686   1.357       .  S
C683        C688   1.407       .  A
C683        C692   1.401       .  A
C688        C689   1.411       .  A
C688        F693   1.355       .  S
C689        C690   1.410       .  A
C689        H694   1.083       .  S
C690        C691   1.413       .  A
C691        C692   1.398       .  A
C691        F695   1.357       .  S
C692        H696   1.084       .  S
C697        C698   1.403       .  A
C697        C702   1.398       .  A
C697        H707   1.083       .  S
C698        C703   1.491       .  S
C698        C699   1.407       .  A
C699        C700   1.401       .  A
C699        F704   1.358       .  S
C700        C701   1.411       .  A
C700        H705   1.077       .  S
C701        C702   1.414       .  A
C702        F706   1.358       .  S
C703        C708   1.408       .  A
C703        C712   1.406       .  A
C708        C709   1.399       .  A
C708        F713   1.357       .  S
C709        C710   1.406       .  A
C709        H714   1.082       .  S
C710        C711   1.409       .  A
C711        C712   1.400       .  A
C711        F715   1.357       .  S
C712        H716   1.083       .  S
C717        C718   1.409       .  A
C717        C722   1.406       .  A
C717        H727   1.083       .  S
C718        C723   1.501   1_455  S
C718        C719   1.410       .  A
C719        C720   1.402       .  A
C719        F724   1.357       .  S
C720        C721   1.407       .  A
C720        H725   1.083       .  S
C721        C722   1.409       .  A
C722        F726   1.356       .  S
C723        C728   1.412       .  A
C723        C732   1.410       .  A
C728        C729   1.403       .  A
C728        F733   1.357       .  S
C729        C730   1.402       .  A
C729        H734   1.083       .  S
C730        C731   1.404       .  A
C731        C732   1.405       .  A
C731        F735   1.357       .  S
C732        H736   1.082       .  S
C737        C738   1.406       .  A
C737        C742   1.397       .  A
C737        H747   1.083       .  S
C738        C743   1.490       .  S
C738        C739   1.411       .  A
C739        C740   1.403       .  A
C739        F744   1.357       .  S
C740        C741   1.402       .  A
C740        H745   1.083       .  S
C741        C742   1.403       .  A
C742        F746   1.357       .  S
C743        C748   1.409       .  A
C743        C752   1.405       .  A
C748        C749   1.402       .  A
C748        F753   1.357       .  S
C749        C750   1.404       .  A
C749        H754   1.082       .  S
C750        C751   1.408       .  A
C751        C752   1.398       .  A
C751        F755   1.358       .  S
C752        H756   1.083       .  S
C757        C758   1.402       .  A
C757        C762   1.396       .  A
C757        H767   1.083       .  S
C758        C763   1.487       .  S
C758        C759   1.406       .  A
C759        C760   1.399       .  A
C759        F764   1.358       .  S
C760        C761   1.411       .  A
C760        H765   1.077       .  S
C761        C762   1.414       .  A
C762        F766   1.358       .  S
C763        C768   1.407       .  A
C763        C772   1.404       .  A
C768        C769   1.397       .  A
C768        F773   1.357       .  S
C769        C770   1.406       .  A
C769        H774   1.082       .  S
C770        C771   1.410       .  A
C771        C772   1.399       .  A
C771        F775   1.356       .  S
C772        H776   1.083       .  S
C777        C778   1.402       .  A
C777        C782   1.402       .  A
C777        H787   1.083       .  S
C778        C783   1.488   1_655  S
C778        C779   1.404       .  A
C779        C780   1.405       .  A
C779        F784   1.357       .  S
C780        C781   1.409       .  A
C780        H785   1.076       .  S
C781        C782   1.415       .  A
C782        F786   1.357       .  S
C783        C788   1.403       .  A
C783        C792   1.407       .  A
C788        C789   1.397       .  A
C788        F793   1.358       .  S
C789        C790   1.409       .  A
C789        H794   1.082       .  S
C790        C791   1.411       .  A
C791        C792   1.409       .  A
C791        F795   1.356       .  S
C792        H796   1.083       .  S
C797        C798   1.409       .  A
C797        C802   1.401       .  A
C797        H807   1.082       .  S
C798        C803   1.501       .  S
C798        C799   1.413       .  A
C799        C800   1.404       .  A
C799        F804   1.357       .  S
C800        C801   1.402       .  A
C800        H805   1.083       .  S
C801        C802   1.404       .  A
C802        F806   1.357       .  S
C803        C808   1.412       .  A
C803        C812   1.407       .  A
C808        C809   1.405       .  A
C808        F813   1.357       .  S
C809        C810   1.404       .  A
C809        H814   1.076       .  S
C810        C811   1.410       .  A
C811        C812   1.400       .  A
C811        F815   1.358       .  S
C812        H816   1.082       .  S
C817        C818   1.400       .  A
C817        C822   1.399       .  A
C817        H827   1.083       .  S
C818        C823   1.473       .  S
C818        C819   1.399       .  A
C819        C820   1.394       .  A
C819        F824   1.358       .  S
C820        C821   1.413       .  A
C820        H825   1.076       .  S
C821        C822   1.414       .  A
C822        F826   1.357       .  S
C823        C828   1.400       .  A
C823        C832   1.402       .  A
C828        C829   1.396       .  A
C828        F833   1.357       .  S
C829        C830   1.408       .  A
C829        H834   1.081       .  S
C830        C831   1.410       .  A
C831        C832   1.398       .  A
C831        F835   1.356       .  S
C832        H836   1.084       .  S
C837        C838   1.402       .  A
C837        C842   1.389       .  A
C837        H847   1.083       .  S
C838        C843   1.461   1_655  S
C838        C839   1.403       .  A
C839        C840   1.389       .  A
C839        F844   1.358       .  S
C840        C841   1.402       .  A
C840        H845   1.084       .  S
C841        C842   1.402       .  A
C842        F846   1.358       .  S
C843        C848   1.403       .  A
C843        C852   1.399       .  A
C848        C849   1.389       .  A
C848        F853   1.358       .  S
C849        C850   1.403       .  A
C849        H854   1.083       .  S
C850        C851   1.408       .  A
C851        C852   1.388       .  A
C851        F855   1.358       .  S
C852        H856   1.083       .  S
C857        C858   1.404       .  A
C857        C862   1.399       .  A
C857        H867   1.083       .  S
C858        C863   1.484       .  S
C858        C859   1.406       .  A
C859        C860   1.399       .  A
C859        F864   1.357       .  S
C860        C861   1.406       .  A
C860        H865   1.083       .  S
C861        C862   1.408       .  A
C862        F866   1.357       .  S
C863        C868   1.406       .  A
C863        C872   1.403       .  A
C868        C869   1.400       .  A
C868        F873   1.357       .  S
C869        C870   1.407       .  A
C869        H874   1.083       .  S
C870        C871   1.411       .  A
C871        C872   1.399       .  A
C871        F875   1.357       .  S
C872        H876   1.083       .  S
C877        C878   1.405       .  A
C877        C882   1.399       .  A
C877        H887   1.083       .  S
C878        C883   1.481       .  S
C878        C879   1.405       .  A
C879        C880   1.395       .  A
C879        F884   1.358       .  S
C880        C881   1.405       .  A
C880        H885   1.082       .  S
C881        C882   1.408       .  A
C882        F886   1.357       .  S
C883        C888   1.402       .  A
C883        C892   1.402       .  A
C888        C889   1.395       .  A
C888        F893   1.358       .  S
C889        C890   1.412       .  A
C889        H894   1.083       .  S
C890        C891   1.416       .  A
C891        C892   1.399       .  A
C891        F895   1.353       .  S
C892        H896   1.083       .  S
C897        C898   1.402       .  A
C897        C902   1.396       .  A
C897        H907   1.083       .  S
C898        C903   1.481       .  S
C898        C899   1.405       .  A
C899        C900   1.401       .  A
C899        F904   1.358       .  S
C900        C901   1.408       .  A
C900        H905   1.082       .  S
C901        C902   1.409       .  A
C902        F906   1.356       .  S
C903        C908   1.402       .  A
C903        C912   1.403       .  A
C908        C909   1.393       .  A
C908        F913   1.358       .  S
C909        C910   1.412       .  A
C909        H914   1.081       .  S
C910        C911   1.415       .  A
C911        C912   1.403       .  A
C911        F915   1.356       .  S
C912        H916   1.083       .  S
C917        C918   1.399       .  A
C917        C922   1.397       .  A
C917        H927   1.084       .  S
C918        C923   1.473       .  S
C918        C919   1.402       .  A
C919        C920   1.398       .  A
C919        F924   1.357   1_565  S
C920        C921   1.408       .  A
C920        H925   1.082   1_565  S
C921        C922   1.412       .  A
C922        F926   1.356       .  S
C923        C928   1.403       .  A
C923        C932   1.401       .  A
C928        C929   1.397       .  A
C928        F933   1.358   1_565  S
C929        C930   1.406       .  A
C929        H934   1.083   1_565  S
C930        C931   1.410       .  A
C931        C932   1.398       .  A
C931        F935   1.357       .  S
C932        H936   1.083       .  S
C937        C938   1.410       .  A
C937        C942   1.401       .  A
C937        H947   1.082       .  S
C938        C943   1.501       .  S
C938        C939   1.414       .  A
C939        C940   1.400       .  A
C939        F944   1.357       .  S
C940        C941   1.400       .  A
C940        H945   1.083       .  S
C941        C942   1.403       .  A
C942        F946   1.357       .  S
C943        C948   1.412       .  A
C943        C952   1.409       .  A
C948        C949   1.396       .  A
C948        F953   1.357       .  S
C949        C950   1.405       .  A
C949        H954   1.083       .  S
C950        C951   1.409       .  A
C951        C952   1.404       .  A
C951        F955   1.356       .  S
C952        H956   1.082       .  S
C957        C958   1.405       .  A
C957        C962   1.398       .  A
C957        H967   1.083       .  S
C958        C963   1.485       .  S
C958        C959   1.406       .  A
C959        C960   1.398       .  A
C959        F964   1.357       .  S
C960        C961   1.407       .  A
C960        H965   1.082       .  S
C961        C962   1.409       .  A
C962        F966   1.356       .  S
C963        C968   1.404       .  A
C963        C972   1.402       .  A
C968        C969   1.398       .  A
C968        F973   1.358       .  S
C969        C970   1.413       .  A
C969        H974   1.076       .  S
C970        C971   1.412       .  A
C971        C972   1.397       .  A
C971        F975   1.358       .  S
C972        H976   1.083       .  S
C977        C978   1.410       .  A
C977        C982   1.409       .  A
C977        H987   1.083       .  S
C978        C983   1.491       .  S
C978        C979   1.408       .  A
C979        C980   1.390       .  A
C979        F984   1.358       .  S
C980        C981   1.402       .  A
C980        H985   1.084       .  S
C981        C982   1.405       .  A
C982        F986   1.357       .  S
C983        C988   1.410       .  A
C983        C992   1.406       .  A
C988        C989   1.405       .  A
C988        F993   1.357       .  S
C989        C990   1.404       .  A
C989        H994   1.083       .  S
C990        C991   1.403       .  A
C991        C992   1.395       .  A
C991        F995   1.356       .  S
C992        H996   1.083       .  S
C997        C998   1.402       .  A
C997       C1002   1.398       .  A
C997       H1007   1.083       .  S
C998       C1003   1.484       .  S
C998        C999   1.404       .  A
C999       C1000   1.399       .  A
C999       F1004   1.357       .  S
C1000      C1001   1.409       .  A
C1000      H1005   1.081       .  S
C1001      C1002   1.412       .  A
C1002      F1006   1.355       .  S
C1003      C1008   1.403       .  A
C1003      C1012   1.402       .  A
C1008      C1009   1.397       .  A
C1008      F1013   1.358       .  S
C1009      C1010   1.413       .  A
C1009      H1014   1.077       .  S
C1010      C1011   1.414       .  A
C1011      C1012   1.400       .  A
C1011      F1015   1.358       .  S
C1012      H1016   1.083       .  S
C1017      C1018   1.403       .  A
C1017      C1022   1.396       .  A
C1017      H1027   1.083       .  S
C1018      C1023   1.484       .  S
C1018      C1019   1.407   1_546  A
C1019      C1020   1.401       .  A
C1019      F1024   1.357       .  S
C1020      C1021   1.408   1_564  A
C1020      H1025   1.083       .  S
C1021      C1022   1.410       .  A
C1022      F1026   1.357       .  S
C1023      C1028   1.406   1_556  A
C1023      C1032   1.403       .  A
C1028      C1029   1.400       .  A
C1028      F1033   1.357       .  S
C1029      C1030   1.408   1_554  A
C1029      H1034   1.082       .  S
C1030      C1031   1.409       .  A
C1031      C1032   1.396       .  A
C1031      F1035   1.356       .  S
C1032      H1036   1.083       .  S
C1037      C1038   1.403       .  A
C1037      C1042   1.399       .  A
C1037      H1047   1.083       .  S
C1038      C1043   1.479       .  S
C1038      C1039   1.404   1_546  A
C1039      C1040   1.396       .  A
C1039      F1044   1.358       .  S
C1040      C1041   1.407   1_564  A
C1040      H1045   1.083       .  S
C1041      C1042   1.410       .  A
C1042      F1046   1.357       .  S
C1043      C1048   1.404       .  A
C1043      C1052   1.401   1_556  A
C1048      C1049   1.399       .  A
C1048      F1053   1.358       .  S
C1049      C1050   1.407       .  A
C1049      H1054   1.082       .  S
C1050      C1051   1.412   1_556  A
C1051      C1052   1.397       .  A
C1051      F1055   1.356       .  S
C1052      H1056   1.083       .  S
C1057      C1058   1.400       .  A
C1057      C1062   1.389       .  A
C1057      H1067   1.084       .  S
C1058      C1063   1.455       .  S
C1058      C1059   1.403   1_565  A
C1059      C1060   1.385       .  A
C1059      F1064   1.358       .  S
C1060      C1061   1.399   1_545  A
C1060      H1065   1.083       .  S
C1061      C1062   1.404       .  A
C1062      F1066   1.358       .  S
C1063      C1068   1.401   1_556  A
C1063      C1072   1.399   1_565  A
C1068      C1069   1.387       .  A
C1068      F1073   1.358       .  S
C1069      C1070   1.403   1_554  A
C1069      H1074   1.083       .  S
C1070      C1071   1.404   1_565  A
C1071      C1072   1.385       .  A
C1071      F1075   1.358       .  S
C1072      H1076   1.082       .  S
C1077      C1078   1.403       .  A
C1077      C1082   1.399       .  A
C1077      H1087   1.083       .  S
C1078      C1083   1.478       .  S
C1078      C1079   1.404   1_565  A
C1079      C1080   1.397       .  A
C1079      F1084   1.358       .  S
C1080      C1081   1.406   1_545  A
C1080      H1085   1.083       .  S
C1081      C1082   1.408       .  A
C1082      F1086   1.357       .  S
C1083      C1088   1.405       .  A
C1083      C1092   1.401   1_565  A
C1088      C1089   1.399       .  A
C1088      F1093   1.357       .  S
C1089      C1090   1.406       .  A
C1089      H1094   1.083       .  S
C1090      C1091   1.411   1_565  A
C1091      C1092   1.397       .  A
C1091      F1095   1.358       .  S
C1092      H1096   1.083       .  S
C1097      C1098   1.410       .  A
C1097      C1102   1.410       .  A
C1097      H1107   1.082       .  S
C1098      C1103   1.503       .  S
C1098      C1099   1.409       .  A
C1099      C1100   1.396       .  A
C1099      F1104   1.358       .  S
C1100      C1101   1.408       .  A
C1100      H1105   1.082       .  S
C1101      C1102   1.412       .  A
C1102      F1106   1.355       .  S
C1103      C1108   1.414       .  A
C1103      C1112   1.409       .  A
C1108      C1109   1.409       .  A
C1108      F1113   1.357       .  S
C1109      C1110   1.405       .  A
C1109      H1114   1.084       .  S
C1110      C1111   1.404       .  A
C1111      C1112   1.398       .  A
C1111      F1115   1.358       .  S
C1112      H1116   1.083       .  S
C1117      C1118   1.401       .  A
C1117      C1122   1.397       .  A
C1117      H1127   1.083       .  S
C1118      C1123   1.469       .  S
C1118      C1119   1.401       .  A
C1119      C1120   1.397       .  A
C1119      F1124   1.358       .  S
C1120      C1121   1.407       .  A
C1120      H1125   1.082       .  S
C1121      C1122   1.408       .  A
C1122      F1126   1.357       .  S
C1123      C1128   1.397       .  A
C1123      C1132   1.399       .  A
C1128      C1129   1.392       .  A
C1128      F1133   1.358       .  S
C1129      C1130   1.413       .  A
C1129      H1134   1.074       .  S
C1130      C1131   1.415       .  A
C1131      C1132   1.400       .  A
C1131      F1135   1.358       .  S
C1132      H1136   1.083       .  S
C1137      C1138   1.409       .  A
C1137      C1142   1.404       .  A
C1137      H1147   1.083       .  S
C1138      C1143   1.503       .  S
C1138      C1139   1.413       .  A
C1139      C1140   1.403       .  A
C1139      F1144   1.354       .  S
C1140      C1141   1.401       .  A
C1140      H1145   1.083       .  S
C1141      C1142   1.404       .  A
C1142      F1146   1.356       .  S
C1143      C1148   1.411       .  A
C1143      C1152   1.407       .  A
C1148      C1149   1.406       .  A
C1148      F1153   1.357       .  S
C1149      C1150   1.408       .  A
C1149      H1154   1.082       .  S
C1150      C1151   1.412       .  A
C1151      C1152   1.402       .  A
C1151      F1155   1.357       .  S
C1152      H1156   1.082       .  S
C1157      C1158   1.400       .  A
C1157      C1162   1.391       .  A
C1157      H1167   1.083       .  S
C1158      C1163   1.482       .  S
C1158      C1159   1.406       .  A
C1159      C1160   1.400       .  A
C1159      F1164   1.358       .  S
C1160      C1161   1.410       .  A
C1160      H1165   1.077       .  S
C1161      C1162   1.413       .  A
C1162      F1166   1.358       .  S
C1163      C1168   1.408       .  A
C1163      C1172   1.403       .  A
C1168      C1169   1.396       .  A
C1168      F1173   1.358       .  S
C1169      C1170   1.403       .  A
C1169      H1174   1.083       .  S
C1170      C1171   1.408       .  A
C1171      C1172   1.396       .  A
C1171      F1175   1.357   1_565  S
C1172      H1176   1.083       .  S
C1177      C1178   1.402       .  A
C1177      C1182   1.397       .  A
C1177      H1187   1.083       .  S
C1178      C1183   1.483       .  S
C1178      C1179   1.405       .  A
C1179      C1180   1.400       .  A
C1179      F1184   1.358       .  S
C1180      C1181   1.410       .  A
C1180      H1185   1.081       .  S
C1181      C1182   1.412       .  A
C1182      F1186   1.355       .  S
C1183      C1188   1.405       .  A
C1183      C1192   1.404       .  A
C1188      C1189   1.397       .  A
C1188      F1193   1.358       .  S
C1189      C1190   1.408       .  A
C1189      H1194   1.083       .  S
C1190      C1191   1.410       .  A
C1191      C1192   1.400       .  A
C1191      F1195   1.357       .  S
C1192      H1196   1.083       .  S
C1197      C1198   1.405       .  A
C1197      C1202   1.403       .  A
C1197      H1207   1.083       .  S
C1198      C1203   1.489       .  S
C1198      C1199   1.406       .  A
C1199      C1200   1.401       .  A
C1199      F1204   1.357       .  S
C1200      C1201   1.408       .  A
C1200      H1205   1.083       .  S
C1201      C1202   1.409       .  A
C1202      F1206   1.356       .  S
C1203      C1208   1.408       .  A
C1203      C1212   1.408       .  A
C1208      C1209   1.399       .  A
C1208      F1213   1.357       .  S
C1209      C1210   1.401       .  A
C1209      H1214   1.084       .  S
C1210      C1211   1.405       .  A
C1211      C1212   1.405       .  A
C1211      F1215   1.357       .  S
C1212      H1216   1.084       .  S
C1217      C1218   1.409       .  A
C1217      C1222   1.404       .  A
C1217      H1227   1.083       .  S
C1218      C1223   1.493       .  S
C1218      C1219   1.410       .  A
C1219      C1220   1.397       .  A
C1219      F1224   1.357       .  S
C1220      C1221   1.401       .  A
C1220      H1225   1.084       .  S
C1221      C1222   1.403       .  A
C1222      F1226   1.357       .  S
C1223      C1228   1.408       .  A
C1223      C1232   1.407       .  A
C1228      C1229   1.399       .  A
C1228      F1233   1.358       .  S
C1229      C1230   1.409       .  A
C1229      H1234   1.083       .  S
C1230      C1231   1.409       .  A
C1231      C1232   1.403       .  A
C1231      F1235   1.356       .  S
C1232      H1236   1.083       .  S
C1237      C1238   1.401       .  A
C1237      C1242   1.396       .  A
C1237      H1247   1.084       .  S
C1238      C1243   1.477       .  S
C1238      C1239   1.402       .  A
C1239      C1240   1.399       .  A
C1239      F1244   1.357       .  S
C1240      C1241   1.410       .  A
C1240      H1245   1.081       .  S
C1241      C1242   1.412       .  A
C1242      F1246   1.355       .  S
C1243      C1248   1.402       .  A
C1243      C1252   1.400       .  A
C1248      C1249   1.396       .  A
C1248      F1253   1.358       .  S
C1249      C1250   1.413       .  A
C1249      H1254   1.077       .  S
C1250      C1251   1.414       .  A
C1251      C1252   1.398       .  A
C1251      F1255   1.358       .  S
C1252      H1256   1.084       .  S
C1257      C1258   1.407       .  A
C1257      C1262   1.400       .  A
C1257      H1267   1.081       .  S
C1258      C1263   1.513       .  S
C1258      C1259   1.414       .  A
C1259      C1260   1.408       .  A
C1259      F1264   1.356       .  S
C1260      C1261   1.412       .  A
C1260      H1265   1.079       .  S
C1261      C1262   1.416       .  A
C1262      F1266   1.355       .  S
C1263      C1268   1.415       .  A
C1263      C1272   1.412       .  A
C1268      C1269   1.401       .  A
C1268      F1273   1.356       .  S
C1269      C1270   1.405       .  A
C1269      H1274   1.083       .  S
C1270      C1271   1.409       .  A
C1271      C1272   1.407       .  A
C1271      F1275   1.355       .  S
C1272      H1276   1.081       .  S
C1277      C1278   1.408       .  A
C1277      C1282   1.400       .  A
C1277      H1287   1.083       .  S
C1278      C1283   1.494       .  S
C1278      C1279   1.410       .  A
C1279      C1280   1.402       .  A
C1279      F1284   1.357       .  S
C1280      C1281   1.403       .  A
C1280      H1285   1.084       .  S
C1281      C1282   1.403       .  A
C1282      F1286   1.357       .  S
C1283      C1288   1.407       .  A
C1283      C1292   1.408       .  A
C1288      C1289   1.395       .  A
C1288      F1293   1.358       .  S
C1289      C1290   1.408       .  A
C1289      H1294   1.083       .  S
C1290      C1291   1.411       .  A
C1291      C1292   1.407       .  A
C1291      F1295   1.355       .  S
C1292      H1296   1.083       .  S
C1297      C1298   1.403       .  A
C1297      C1302   1.399       .  A
C1297      H1307   1.083       .  S
C1298      C1303   1.487       .  S
C1298      C1299   1.406       .  A
C1299      C1300   1.400       .  A
C1299      F1304   1.358       .  S
C1300      C1301   1.409       .  A
C1300      H1305   1.082       .  S
C1301      C1302   1.411       .  A
C1302      F1306   1.355       .  S
C1303      C1308   1.405       .  A
C1303      C1312   1.402       .  A
C1308      C1309   1.400       .  A
C1308      F1313   1.358       .  S
C1309      C1310   1.412       .  A
C1309      H1314   1.076       .  S
C1310      C1311   1.414       .  A
C1311      C1312   1.399       .  A
C1311      F1315   1.358       .  S
C1312      H1316   1.083       .  S
C1317      C1318   1.403       .  A
C1317      C1322   1.399       .  A
C1317      H1327   1.083       .  S
C1318      C1323   1.481       .  S
C1318      C1319   1.406   1_554  A
C1319      C1320   1.397       .  A
C1319      F1324   1.358       .  S
C1320      C1321   1.405   1_556  A
C1320      H1325   1.083       .  S
C1321      C1322   1.410       .  A
C1322      F1326   1.357       .  S
C1323      C1328   1.406       .  A
C1323      C1332   1.402   1_554  A
C1328      C1329   1.399       .  A
C1328      F1333   1.357       .  S
C1329      C1330   1.406       .  A
C1329      H1334   1.083       .  S
C1330      C1331   1.409   1_554  A
C1331      C1332   1.396       .  A
C1331      F1335   1.356       .  S
C1332      H1336   1.083       .  S
C1337      C1338   1.401   1_556  A
C1337      C1342   1.400       .  A
C1337      H1347   1.083       .  S
C1338      C1343   1.474       .  S
C1338      C1339   1.401       .  A
C1339      C1340   1.397       .  A
C1339      F1344   1.357       .  S
C1340      C1341   1.408       .  A
C1340      H1345   1.083       .  S
C1341      C1342   1.412   1_554  A
C1342      F1346   1.357       .  S
C1343      C1348   1.403       .  A
C1343      C1352   1.401       .  A
C1348      C1349   1.400       .  A
C1348      F1353   1.357       .  S
C1349      C1350   1.407       .  A
C1349      H1354   1.083       .  S
C1350      C1351   1.409       .  A
C1351      C1352   1.398       .  A
C1351      F1355   1.357   1_554  S
C1352      H1356   1.083   1_554  S
C1357      C1358   1.401   1_554  A
C1357      C1362   1.389       .  A
C1357      H1367   1.084       .  S
C1358      C1363   1.460       .  S
C1358      C1359   1.402       .  A
C1359      C1360   1.390       .  A
C1359      F1364   1.357       .  S
C1360      C1361   1.402   1_556  A
C1360      H1365   1.083       .  S
C1361      C1362   1.405       .  A
C1362      F1366   1.358       .  S
C1363      C1368   1.402   1_556  A
C1363      C1372   1.401       .  A
C1368      C1369   1.389       .  A
C1368      F1373   1.358       .  S
C1369      C1370   1.404   1_554  A
C1369      H1374   1.083       .  S
C1370      C1371   1.404       .  A
C1371      C1372   1.390       .  A
C1371      F1375   1.357       .  S
C1372      H1376   1.083       .  S
