geometry optimzed in LAMMPS
_audit_creation_date              2020-12-01 
_audit_creation_method            'lammps2cif' 
_symmetry_space_group_name_H-M    'P1' 
_symmetry_Int_Tables_number       1 
_symmetry_cell_setting            triclinic 
loop_ 
_symmetry_equiv_pos_as_xyz 
  x,y,z 
_cell_length_a                    29.71174476 
_cell_length_b                    32.95484294070422 
_cell_length_c                    43.89647788374711 
_cell_angle_alpha                 89.71646240250463 
_cell_angle_beta                  94.76040707256155 
_cell_angle_gamma                 90.16424972617413 
loop_ 
_atom_site_label 
_atom_site_type_symbol 
_atom_site_fract_x 
_atom_site_fract_y 
_atom_site_fract_z 
_atom_site_charge 
O1          O  0.25438558  0.31035405  0.03821312    -0.57300
C2          C  0.36020456  0.39875365  0.02432257     0.75400
O3          O  0.29738637  0.35694766  0.10015578    -0.58400
C4          C  0.26082078  0.27456833  0.02906227     0.75300
C5          C  0.41511143  0.29584255  0.09515730     0.77700
Cd6        Cd  0.33532630  0.32434006  0.05900485     1.37500
O7          O  0.36330835  0.36318792  0.01369170    -0.57300
O8          O  0.38941637  0.32376443  0.10253050    -0.56100
C9          C  0.29298204  0.32381816  0.11468191     0.77700
O10         O  0.40722374  0.28138385  0.06838262    -0.58400
O11         O  0.34751632  0.40009179  0.05114789    -0.56900
O12         O  0.30182957  0.26311622  0.03081820    -0.56900
O13         O  0.30540767  0.29175610  0.10217940    -0.56100
O14         O  0.08550522  0.29189885  0.19926853    -0.57300
C15         C  0.19438647  0.32596930  0.21906363     0.75400
O16         O  0.14394944  0.40516634  0.20264942    -0.58400
C17         C  0.04458253  0.30248516  0.19468106     0.75300
C18         C  0.09618196  0.37020764  0.29370212     0.77700
Cd19       Cd  0.10794806  0.35184820  0.23055734     1.37500
O20         O  0.16328048  0.29993784  0.22136614    -0.57300
O21         O  0.10341546  0.33450544  0.28477349    -0.56100
C22         C  0.11131649  0.40986003  0.18260583     0.77700
O23         O  0.09208416  0.39750038  0.27332811    -0.58400
O24         O  0.18789789  0.36095200  0.22961901    -0.56900
O25         O  0.03193944  0.33194540  0.21036734    -0.60100
O26         O  0.07426725  0.39358458  0.18817006    -0.56100
C27         C  0.36124508  0.00592820  0.96843864     0.30600
C28         C  0.36457858  0.43737851  0.00483311     0.30600
C29         C  0.32015633  0.49828431  0.98671333    -0.05600
C30         C  0.36662683  0.46516175  0.95245764    -0.06400
C31         C  0.40110151  0.50431956  0.99287961    -0.06300
C32         C  0.32170911  0.46377607  0.00501005    -0.05600
C33         C  0.36797814  0.43012163  0.97022248    -0.06400
C34         C  0.40314952  0.46977205  0.01217651    -0.06300
C35         C  0.28339301  0.46440059  0.02094674    -0.31700
N36         N  0.25932529  0.49843551  0.01287379     0.14800
C37         C  0.28197266  0.01943203  0.99188802    -0.31700
H38         H  0.27206245  0.04846532  0.98195151     0.16800
C39         C  0.37558065  0.39825634  0.95039922    -0.30700
N40         N  0.37952970  0.41408603  0.92197699     0.13500
C41         C  0.37440881  0.45458667  0.92327730    -0.30700
C42         C  0.44613708  0.47089197  0.02764384    -0.31000
N43         N  0.46927145  0.50433846  0.01834724     0.14000
H44         H  0.46012177  0.44764073  0.04307146     0.16700
C45         C  0.44318737  0.02320629  0.99637989    -0.31000
H46         H  0.45559323  0.04640750  0.98185923     0.16700
H47         H  0.37723513  0.47488870  0.90407864     0.16700
H48         H  0.27457397  0.44247655  0.03785695     0.16700
H49         H  0.37920997  0.36644186  0.95619569     0.16700
O50         O  0.12722042  0.15410300  0.03229051    -0.57300
C51         C  0.22290892  0.24741412  0.01702786     0.75400
O52         O  0.15555843  0.16885713  0.93388546    -0.58400
C53         C  0.12784359  0.11872928  0.02103116     0.75300
C54         C  0.07736125  0.23115723  0.95028575     0.77700
Cd55       Cd  0.15242809  0.19341814  0.98665735     1.37500
O56         O  0.23038294  0.21153564  0.00872769    -0.57300
O57         O  0.07024148  0.21332317  0.97512094    -0.56100
C58         C  0.19634158  0.17936454  0.93266516     0.77700
O59         O  0.11821972  0.23781192  0.94623657    -0.58400
O60         O  0.18160269  0.25815263  0.01434147    -0.56900
O61         O  0.13820833  0.11761262  0.99364008    -0.56900
O62         O  0.21822219  0.18810010  0.95769660    -0.56100
O63         O  0.40439859  0.21917307  0.84668101    -0.57300
C64         C  0.29485041  0.18499017  0.82819278     0.75400
O65         O  0.40595277  0.12331497  0.76775121    -0.58400
C66         C  0.94583051  0.20989701  0.84944006     0.75300
C67         C  0.37495271  0.10119771  0.86046217     0.77700
Cd68       Cd  0.38067964  0.16084783  0.81354468     1.37500
O69         O  0.32464836  0.21183677  0.82416572    -0.57300
O70         O  0.41075839  0.12144578  0.85833780    -0.56100
C71         C  0.38677218  0.14711288  0.74796230     0.77700
O72         O  0.34672734  0.10188966  0.83728637    -0.58400
O73         O  0.30197157  0.14962978  0.81863316    -0.56900
O74         O  0.45807818  0.18214853  0.83195312    -0.56900
O75         O  0.36769273  0.17776302  0.75841465    -0.56100
C76         C  0.12514281  0.01143680  0.07674234     0.30600
C77         C  0.12300892  0.07997814  0.04030009     0.30600
C78         C  0.08196471  0.01641065  0.05487165    -0.05600
C79         C  0.12561398  0.05232903  0.09297215    -0.06400
C80         C  0.16251810  0.01518069  0.05483302    -0.06300
C81         C  0.08046703  0.05100787  0.03565666    -0.05600
C82         C  0.12653680  0.08727464  0.07530112    -0.06400
C83         C  0.16188545  0.04994289  0.03678760    -0.06300
C84         C  0.03792734  0.04966889  0.01940386    -0.31700
N85         N  0.01445635  0.01631624  0.02861097     0.14800
C86         C  0.04050921  0.99714197  0.05080416    -0.31700
H87         H  0.02760322  0.47291256  0.06406885     0.16800
C88         C  0.13099305  0.11947508  0.09598955    -0.30700
N89         N  0.13022727  0.10403188  0.12480614     0.13500
C90         C  0.12542310  0.06352890  0.12287470    -0.30700
C91         C  0.19797508  0.04720528  0.01898741    -0.31000
N92         N  0.22008048  0.01174966  0.02568762     0.14000
H93         H  0.20735425  0.06939340  0.00244318     0.16700
C94         C  0.19808980  0.49161292  0.04751018    -0.31000
H95         H  0.20778296  0.46255407  0.05750679     0.16700
H96         H  0.12349512  0.04363201  0.14240318     0.16700
H97         H  0.02484925  0.07205129  0.00290854     0.16700
H98         H  0.13495029  0.15130672  0.09073797     0.16700
O99         O  0.51716840  0.05606750  0.49216803    -0.57300
C100        C  0.40621045  0.14732304  0.51765748     0.75400
O101        O  0.43238533  0.07818236  0.42567922    -0.58400
C102        C  0.51007397  0.02439189  0.50743790     0.75300
C103        C  0.35920316  0.03421300  0.44815853     0.77700
Cd104      Cd  0.43471852  0.07692496  0.48047970     1.37500
O105        O  0.41079341  0.11168174  0.52860255    -0.57300
O106        O  0.35213525  0.06041845  0.46828807    -0.56100
C107        C  0.96591072  0.10082836  0.42308693     0.77700
O108        O  0.39969856  0.02297467  0.44752986    -0.58400
O109        O  0.41229516  0.15027034  0.48951527    -0.56900
O110        O  0.46898624  0.01793058  0.51202105    -0.56900
O111        O  0.98353909  0.11702541  0.44744772    -0.56100
O112        O  0.19304230  0.03019989  0.33907433    -0.57300
C113        C  0.07883657  0.10155953  0.32668758     0.75400
O114        O  0.19050121  0.15931985  0.34287910    -0.58400
C115        C  0.23390492  0.04117467  0.34450582     0.75300
C116        C  0.16505698  0.11161959  0.25111808     0.77700
Cd117      Cd  0.16988787  0.09580294  0.31577302     1.37500
O118        O  0.09654258  0.06670232  0.32391514    -0.57300
O119        O  0.14563483  0.08158776  0.26265191    -0.56100
C120        C  0.17677156  0.14676274  0.36804286     0.77700
O121        O  0.19134525  0.13259875  0.26916358    -0.58400
O122        O  0.10094413  0.13203633  0.31854258    -0.56900
O123        O  0.24665835  0.07224854  0.33032606    -0.56900
O124        O  0.16348949  0.11043138  0.36880921    -0.56100
C125        C  0.40547983  0.25283298  0.57457065     0.30600
C126        C  0.40121828  0.18503900  0.53769534     0.30600
C127        C  0.44407452  0.24771138  0.55376451    -0.05600
C128        C  0.40266703  0.21168781  0.59045355    -0.06400
C129        C  0.36308543  0.24999926  0.55156037    -0.06300
C130        C  0.44225421  0.21338271  0.53551766    -0.05600
C131        C  0.40144361  0.17691622  0.57261396    -0.06400
C132        C  0.36075485  0.21580344  0.53216563    -0.06300
C133        C  0.47960137  0.21465570  0.51860529    -0.31700
N134        N  0.50360634  0.24892055  0.52597710     0.14800
C135        C  0.48207302  0.26936272  0.54743529    -0.31700
H136        H  0.49297627  0.29774450  0.55789481     0.16800
C137        C  0.39285113  0.14483318  0.59238911    -0.30700
N138        N  0.38835816  0.16034633  0.62077598     0.13500
C139        C  0.39306123  0.20087393  0.61931462    -0.30700
C140        C  0.31856461  0.21807193  0.51566096    -0.31000
N141        N  0.29588193  0.25166108  0.52476035     0.14000
H142        H  0.30516002  0.19612576  0.49904898     0.16700
C143        C  0.32217425  0.27016675  0.54711956    -0.31000
H144        H  0.31039686  0.29488934  0.56020259     0.16700
H145        H  0.38887752  0.22111793  0.63820777     0.16700
H146        H  0.48850977  0.19230659  0.50221054     0.16700
H147        H  0.38849634  0.11317525  0.58644760     0.16700
O148        O  0.03862197  0.46478753  0.53432658    -0.57300
C149        C  0.13892104  0.36820551  0.51925939     0.75400
O150        O  0.18269097  0.48868769  0.57275359    -0.58400
C151        C  0.04727236  0.49663590  0.51976360     0.75300
C152        C  0.06958520  0.43920040  0.60472802     0.77700
Cd153      Cd  0.11724828  0.44380052  0.55152613     1.37500
O154        O  0.16078555  0.40055408  0.51454593    -0.57300
O155        O  0.08733879  0.47179410  0.59621680    -0.56100
C156        C  0.19211447  0.46403421  0.59477900     0.77700
O157        O  0.07249632  0.40853919  0.58758813    -0.58400
O158        O  0.10899398  0.37187381  0.53786194    -0.56900
O159        O  0.08903342  0.50315513  0.51682758    -0.56900
O160        O  0.17220730  0.43018585  0.59320859    -0.56100
O161        O  0.43818698  0.45890429  0.71354388    -0.57300
C162        C  0.31527381  0.45466571  0.69993594     0.75400
O163        O  0.41610946  0.34831053  0.70492985    -0.58400
C164        C  0.46782056  0.43206329  0.70991799     0.75300
C165        C  0.38426252  0.39274229  0.79580820     0.77700
Cd166      Cd  0.38545454  0.40761879  0.73037473     1.37500
O167        O  0.35397041  0.47030952  0.70626974    -0.57300
O168        O  0.40444407  0.42250960  0.78467112    -0.56100
C169        C  0.38824016  0.35047781  0.68152760     0.77700
O170        O  0.36270846  0.36967637  0.77668199    -0.58400
O171        O  0.30733125  0.42124692  0.71299247    -0.56900
O172        O  0.46284115  0.39807314  0.72276865    -0.56900
O173        O  0.35422436  0.37271232  0.68394786    -0.56100
C174        C  0.14363241  0.26070936  0.46495657     0.30600
C175        C  0.14362273  0.32872722  0.50131577     0.30600
C176        C  0.18633433  0.26818799  0.48592769    -0.05600
C177        C  0.13559823  0.30156117  0.44879358    -0.06400
C178        C  0.10591449  0.26178046  0.48743072    -0.06300
C179        C  0.18780467  0.30237485  0.50461115    -0.05600
C180        C  0.13596822  0.33613103  0.46661052    -0.06400
C181        C  0.10677578  0.29619681  0.50630059    -0.06300
C182        C  0.22974065  0.29971120  0.52168823    -0.31700
N183        N  0.25213253  0.26533384  0.51342476     0.14800
C184        C  0.22544544  0.24622958  0.49164081    -0.31700
H185        H  0.23347606  0.21805868  0.48080813     0.16800
C186        C  0.12191959  0.36793927  0.44711047    -0.30700
N187        N  0.11250336  0.35249840  0.41858217     0.13500
C188        C  0.12031059  0.31217954  0.41964918    -0.30700
C189        C  0.06904452  0.29420566  0.52269095    -0.31000
N190        N  0.04468624  0.26076627  0.51409332     0.14000
H191        H  0.05901003  0.31597218  0.53905219     0.16700
C192        C  0.06593633  0.24141865  0.49198534    -0.31000
H193        H  0.05213349  0.21579979  0.47920281     0.16700
H194        H  0.11412992  0.29180111  0.40046398     0.16700
H195        H  0.24244361  0.32108512  0.53893792     0.16700
H196        H  0.11684987  0.39920696  0.45337606     0.16700
C197        C  0.23682974  0.46180167  0.67743446    -0.25800
C198        C  0.28252032  0.47092458  0.67565322    -0.13800
C199        C  0.29700213  0.48587065  0.64770468     0.36800
C200        C  0.26621999  0.48691961  0.62132985    -0.25200
C201        C  0.22161255  0.47355874  0.62273123    -0.14500
C202        C  0.20621667  0.46339149  0.65143224     0.37900
N203        N  0.15960051  0.45298913  0.65375103    -0.88700
H204        H  0.22549922  0.45089272  0.69885336     0.19000
H205        H  0.27785056  0.49524266  0.59939886     0.19000
N206        N  0.34363247  0.49631047  0.64551571    -0.87700
H207        H  0.14074458  0.47925176  0.64874236     0.36400
H208        H  0.15393594  0.44482375  0.67616693     0.41500
H209        H  0.35060828  0.52189991  0.65912578     0.41100
H210        H  0.34910663  0.50490484  0.62317522     0.36000
C211        C  0.51571157  0.40011077  0.67418080    -0.25800
C212        C  0.50165852  0.43632587  0.68733051    -0.13800
C213        C  0.51311716  0.47383032  0.67416918     0.36800
C214        C  0.53648377  0.47398683  0.64777708    -0.25200
C215        C  0.54727169  0.43754691  0.63347130    -0.14500
C216        C  0.53731090  0.40033211  0.64718925     0.37900
N217        N  0.04818279  0.36251438  0.63358397    -0.88700
H218        H  0.50713367  0.37089881  0.68359373     0.19000
H219        H  0.54470399  0.50292443  0.63776599     0.19000
N220        N  0.50135170  0.51205931  0.68670492    -0.87700
H221        H  0.01820948  0.34613601  0.62896922     0.36400
H222        H  0.06899377  0.34604991  0.64952155     0.41500
H223        H  0.51319114  0.51264931  0.70980853     0.41100
H224        H  0.46627916  0.51517450  0.68474511     0.36000
C225        C  0.38174752  0.32015742  0.59750827    -0.25800
C226        C  0.41158509  0.28716005  0.59840111    -0.13800
C227        C  0.44204538  0.28295636  0.62522222     0.36800
C228        C  0.43325906  0.30364486  0.65187250    -0.25200
C229        C  0.39663558  0.33017935  0.65240650    -0.14500
C230        C  0.37281443  0.34074927  0.62430120     0.37900
N231        N  0.34005429  0.37268922  0.62262795    -0.88700
H232        H  0.36549330  0.33047807  0.57607436     0.19000
H233        H  0.45503650  0.29818584  0.67251935     0.19000
N234        N  0.48089688  0.25679488  0.62706028    -0.87700
H235        H  0.30918342  0.36069509  0.61361614     0.36400
H236        H  0.35015125  0.39479810  0.60742138     0.41500
H237        H  0.48562169  0.24273615  0.60642353     0.41100
H238        H  0.47609449  0.23390581  0.64302119     0.36000
C239        C  0.14752426  0.16020368  0.41870439    -0.25800
C240        C  0.17312238  0.17323405  0.39481059    -0.13800
C241        C  0.19306054  0.21178321  0.39645119     0.36800
C242        C  0.18291909  0.23786155  0.41985492    -0.25200
C243        C  0.15271200  0.22712019  0.44197020    -0.14500
C244        C  0.13893282  0.18590624  0.44297530     0.37900
N245        N  0.12230771  0.16730883  0.46940221    -0.88700
H246        H  0.13471812  0.12938369  0.41894254     0.19000
H247        H  0.19894131  0.26744169  0.42076241     0.19000
N248        N  0.22359499  0.22445110  0.37446038    -0.87700
H249        H  0.08807231  0.16058790  0.46464190     0.36400
H250        H  0.12762401  0.18546218  0.48871557     0.41500
H251        H  0.25216199  0.20591793  0.37745217     0.41100
H252        H  0.23476237  0.25415765  0.37867462     0.36000
C253        C  0.24748636  0.02804798  0.39968231    -0.25800
C254        C  0.26292939  0.02419406  0.37041956    -0.13800
C255        C  0.30859681  0.01498343  0.36777666     0.36800
C256        C  0.33864033  0.01308733  0.39436413    -0.25200
C257        C  0.32428348  0.02236956  0.42338878    -0.14500
C258        C  0.27783497  0.02816247  0.42604083     0.37900
N259        N  0.26160607  0.03634478  0.45519447    -0.88700
H260        H  0.21236766  0.03539851  0.40192197     0.19000
H261        H  0.37416509  0.00813300  0.39197689     0.19000
N262        N  0.32462804  0.00998640  0.33802876    -0.87700
H263        H  0.23739634  0.01434628  0.45933353     0.36400
H264        H  0.24559272  0.06458941  0.45394135     0.41500
H265        H  0.30850576  0.98450177  0.32809496     0.41100
H266        H  0.35924897  0.00369931  0.33992292     0.36000
C267        C  0.01215003  0.07259841  0.34874434    -0.25800
C268        C  0.03829250  0.10682925  0.34339513    -0.13800
C269        C  0.03300705  0.14232491  0.36081790     0.36800
C270        C  0.00718315  0.14077419  0.38609354    -0.25200
C271        C  0.98512619  0.10495623  0.39340833    -0.14500
C272        C  0.98556061  0.07133917  0.37353174     0.37900
N273        N  0.96222159  0.03453535  0.37985481    -0.88700
H274        H  0.01533918  0.04540693  0.33529606     0.19000
H275        H  0.00598499  0.16706129  0.40074831     0.19000
N276        N  0.05615223  0.17917559  0.35431179    -0.87700
H277        H  0.98593041  0.01115182  0.38271897     0.36400
H278        H  0.94014517  0.02774624  0.36075197     0.41500
H279        H  0.07677190  0.18734591  0.37373577     0.41100
H280        H  0.03195503  0.20198148  0.35010338     0.36000
C281        C  0.10269596  0.12347450  0.17300302    -0.25800
C282        C  0.13835042  0.12320413  0.15402885    -0.13800
C283        C  0.18311087  0.12662899  0.16736792     0.36800
C284        C  0.19144225  0.12665343  0.19950812    -0.25200
C285        C  0.15582865  0.12165164  0.21826464    -0.14500
C286        C  0.11091312  0.12232878  0.20497248     0.37900
N287        N  0.07386915  0.11975799  0.22401073    -0.88700
H288        H  0.06847774  0.12012841  0.16269932     0.19000
H289        H  0.22587556  0.12688700  0.20978785     0.19000
N290        N  0.22001664  0.12660619  0.14818433    -0.87700
H291        H  0.04302131  0.11999285  0.21068543     0.36400
H292        H  0.07459883  0.14593980  0.23740806     0.41500
H293        H  0.22024822  0.09851422  0.13724080     0.41100
H294        H  0.25081011  0.12899468  0.16142821     0.36000
C295        C  0.42210114  0.12875208  0.66737439    -0.25800
C296        C  0.38286076  0.14051633  0.64951651    -0.13800
C297        C  0.34313654  0.14768680  0.66430114     0.36800
C298        C  0.34494742  0.14776817  0.69637001    -0.25200
C299        C  0.38534213  0.13982498  0.71435916    -0.14500
C300        C  0.42376295  0.12803383  0.69965455     0.37900
N301        N  0.46534961  0.11892430  0.71738957    -0.88700
H302        H  0.45279219  0.12418561  0.65614213     0.19000
H303        H  0.31479927  0.15560067  0.70734307     0.19000
N304        N  0.30113411  0.15749527  0.64729045    -0.87700
H305        H  0.99096660  0.11310215  0.70303638     0.36400
H306        H  0.46045563  0.09196113  0.72930419     0.41500
H307        H  0.30401309  0.15533711  0.62379203     0.41100
H308        H  0.29354825  0.18769915  0.65189139     0.36000
C309        C  0.96331648  0.23160950  0.90362001    -0.25800
C310        C  0.97755561  0.22723335  0.87396990    -0.13800
C311        C  0.02346802  0.23262994  0.86961851     0.36800
C312        C  0.05476111  0.23901626  0.89488910    -0.25200
C313        C  0.04149595  0.23837889  0.92497908    -0.14500
C314        C  0.99492217  0.23673711  0.92925719     0.37900
N315        N  0.98008875  0.23841974  0.95955869    -0.88700
H316        H  0.92786799  0.22777936  0.90711114     0.19000
H317        H  0.09023655  0.24080502  0.89093885     0.19000
N318        N  0.03876049  0.22990790  0.83960788    -0.87700
H319        H  0.94488814  0.23635080  0.95879325     0.36400
H320        H  0.98884291  0.26700840  0.96846381     0.41500
H321        H  0.06244953  0.20649670  0.83970718     0.41100
H322        H  0.05511931  0.25709583  0.83494509     0.36000
C323        C  0.20378867  0.15896498  0.87881121    -0.25800
C324        C  0.21643628  0.18465822  0.90336915    -0.13800
C325        C  0.24616737  0.21741726  0.89914018     0.36800
C326        C  0.26673660  0.22076573  0.87164683    -0.25200
C327        C  0.25864343  0.19177010  0.84856251    -0.14500
C328        C  0.22473975  0.16222940  0.85142960     0.37900
N329        N  0.21288286  0.13445493  0.82706299    -0.88700
H330        H  0.17909938  0.13517237  0.88132618     0.19000
H331        H  0.29216866  0.24400876  0.86945884     0.19000
N332        N  0.25595180  0.24676446  0.92295835    -0.87700
H333        H  0.17835269  0.13755727  0.82076934     0.36400
H334        H  0.21838183  0.10496565  0.83541408     0.41500
H335        H  0.22597653  0.26217539  0.92605538     0.41100
H336        H  0.27884841  0.26858568  0.91627109     0.36000
C337        C  0.34881837  0.37768419  0.87653622    -0.25800
C338        C  0.38638402  0.39421569  0.89367589    -0.13800
C339        C  0.42577898  0.40294226  0.87900043     0.36800
C340        C  0.42535662  0.39866455  0.84715141    -0.25200
C341        C  0.38612518  0.38647373  0.82948440    -0.14500
C342        C  0.34825668  0.37355875  0.84448733     0.37900
N343        N  0.30806453  0.35987154  0.82704737    -0.88700
H344        H  0.31840459  0.37171571  0.88782576     0.19000
H345        H  0.45493646  0.40750467  0.83581435     0.19000
N346        N  0.46519772  0.41859520  0.89633503    -0.87700
H347        H  0.28255780  0.35369969  0.84142306     0.36400
H348        H  0.31567252  0.33221979  0.81707293     0.41500
H349        H  0.45781434  0.44772583  0.90376677     0.41100
H350        H  0.49182535  0.42202600  0.88239733     0.36000
C351        C  0.32420998  0.03357778  0.91933870    -0.25800
C352        C  0.35463770  0.04059715  0.94508811    -0.13800
C353        C  0.38105626  0.07614358  0.94515104     0.36800
C354        C  0.38819574  0.09470413  0.91699199    -0.25200
C355        C  0.36533755  0.08099340  0.88950140    -0.14500
C356        C  0.33029847  0.05213343  0.89135295     0.37900
N357        N  0.30209435  0.03910338  0.86518613    -0.88700
H358        H  0.29957808  0.00929346  0.91983837     0.19000
H359        H  0.41072307  0.12059723  0.91664590     0.19000
N360        N  0.39681818  0.09519236  0.97340301    -0.87700
H361        H  0.32255934  0.02807302  0.84884425     0.36400
H362        H  0.28346457  0.06387026  0.85623454     0.41500
H363        H  0.36849368  0.10337210  0.98456701     0.41100
H364        H  0.41427728  0.12200915  0.96926359     0.36000
C365        C  0.05845491  0.35955489  0.34085664    -0.25800
C366        C  0.09293443  0.37884962  0.32638194    -0.13800
C367        C  0.12713027  0.40018572  0.34434124     0.36800
C368        C  0.12902990  0.39682309  0.37636645    -0.25200
C369        C  0.09777088  0.37279196  0.39054639    -0.14500
C370        C  0.05981990  0.35730383  0.37272752     0.37900
N371        N  0.02456607  0.33552861  0.38635727    -0.88700
H372        H  0.03159032  0.34402701  0.32728725     0.19000
H373        H  0.15796491  0.40907199  0.38997994     0.19000
N374        N  0.16215989  0.42285042  0.33112723    -0.87700
H375        H  0.99422999  0.35056498  0.38013907     0.36400
H376        H  0.02908492  0.33713469  0.41019032     0.41500
H377        H  0.15758924  0.42350751  0.30733733     0.41100
H378        H  0.19282163  0.40812057  0.33696421     0.36000
C379        C  0.09900243  0.44417401  0.09945024    -0.25800
C380        C  0.13028727  0.47619353  0.09998886    -0.13800
C381        C  0.16319697  0.47787208  0.12562653     0.36800
C382        C  0.15541599  0.45645863  0.15222838    -0.25200
C383        C  0.11753675  0.43141015  0.15364343    -0.14500
C384        C  0.09094758  0.42269971  0.12624098     0.37900
N385        N  0.05731593  0.39113518  0.12527282    -0.88700
H386        H  0.08137505  0.43521759  0.07816903     0.19000
H387        H  0.17905164  0.46016127  0.17220235     0.19000
N388        N  0.20467415  0.00243313  0.12614746    -0.87700
H389        H  0.04374543  0.38630463  0.10283766     0.36400
H390        H  0.03060224  0.40141365  0.13722080     0.41500
H391        H  0.20755404  0.01854814  0.10603052     0.41100
H392        H  0.20313104  0.52332516  0.14374136     0.36000
C393        C  0.43796155  0.27375552  0.14773867    -0.25800
C394        C  0.45093152  0.28182422  0.11819516    -0.13800
C395        C  0.49704876  0.28689783  0.11393972     0.36800
C396        C  0.52863347  0.28814045  0.13978796    -0.25200
C397        C  0.51445207  0.28567382  0.16957414    -0.14500
C398        C  0.46903013  0.27615698  0.17340135     0.37900
N399        N  0.45321532  0.27044857  0.20309171    -0.88700
H400        H  0.40254706  0.26935168  0.15116478     0.19000
H401        H  0.56360087  0.29541932  0.13678946     0.19000
N402        N  0.51091556  0.29501092  0.08392680    -0.87700
H403        H  0.45773368  0.29734463  0.21546069     0.36400
H404        H  0.47268153  0.24775048  0.21444344     0.41500
H405        H  0.50417482  0.26897788  0.07081390     0.41100
H406        H  0.54582893  0.29973016  0.08486774     0.36000
C407        C  0.25418654  0.28605743  0.15398274    -0.25800
C408        C  0.27505484  0.32196071  0.14494710    -0.13800
C409        C  0.27949689  0.35491772  0.16527289     0.36800
C410        C  0.25795851  0.35316390  0.19247965    -0.25200
C411        C  0.23181455  0.31924646  0.19956711    -0.14500
C412        C  0.23267054  0.28436246  0.18116035     0.37900
N413        N  0.20961370  0.24798590  0.18898174    -0.88700
H414        H  0.25252110  0.25977860  0.13917531     0.19000
H415        H  0.25860783  0.37979787  0.20688358     0.19000
N416        N  0.30499501  0.39028665  0.15795342    -0.87700
H417        H  0.23309888  0.22433265  0.19075195     0.36400
H418        H  0.18534404  0.24116643  0.17110907     0.41500
H419        H  0.33868875  0.38140863  0.15742174     0.41100
H420        H  0.30441284  0.41199654  0.17520086     0.36000
O421        O  0.25419583  0.81018982  0.03779255    -0.57300
C422        C  0.36024313  0.89864548  0.02415724     0.75400
O423        O  0.29702604  0.85701168  0.09970165    -0.58400
C424        C  0.26074377  0.77445785  0.02855655     0.75300
C425        C  0.41426768  0.79603029  0.09565703     0.77700
Cd426      Cd  0.33505512  0.82424401  0.05869867     1.37500
O427        O  0.36333041  0.86310166  0.01346192    -0.57300
O428        O  0.38915650  0.82479365  0.10228531    -0.56100
C429        C  0.29181214  0.82375870  0.11389193     0.77700
O430        O  0.40611569  0.78049120  0.06925451    -0.58400
O431        O  0.34736730  0.89991662  0.05092699    -0.56900
O432        O  0.30180038  0.76312403  0.03023894    -0.56900
O433        O  0.30371216  0.79167082  0.10118910    -0.56100
O434        O  0.08480619  0.79204983  0.19989519    -0.57300
C435        C  0.19473399  0.82505426  0.21910263     0.75400
O436        O  0.14603869  0.90418775  0.20226580    -0.58400
C437        C  0.04406328  0.80326070  0.19547728     0.75300
C438        C  0.09779418  0.87086583  0.29384491     0.77700
Cd439      Cd  0.10895338  0.85197915  0.23074964     1.37500
O440        O  0.16328462  0.79936942  0.22143914    -0.57300
O441        O  0.10418987  0.83501234  0.28491798    -0.56100
C442        C  0.11325664  0.90941329  0.18242857     0.77700
O443        O  0.09446032  0.89821448  0.27348547    -0.58400
O444        O  0.18902470  0.85997307  0.23000858    -0.56900
O445        O  0.03227233  0.83316727  0.21104340    -0.60100
O446        O  0.07593578  0.89392805  0.18828860    -0.56100
C447        C  0.36081943  0.50585047  0.96835609     0.30600
C448        C  0.36481445  0.93735514  0.00479550     0.30600
C449        C  0.32046792  0.99829505  0.98665181    -0.05600
C450        C  0.36723792  0.96529818  0.95251278    -0.06400
C451        C  0.40136866  0.00438203  0.99307673    -0.06300
C452        C  0.32191110  0.96373906  0.00488488    -0.05600
C453        C  0.36845894  0.93021060  0.97021066    -0.06400
C454        C  0.40335917  0.96976461  0.01231965    -0.06300
C455        C  0.28358174  0.96442821  0.02080630    -0.31700
N456        N  0.25963503  0.99855510  0.01279000     0.14800
C457        C  0.28157478  0.51931034  0.99191518    -0.31700
H458        H  0.27151208  0.54824772  0.98187851     0.16800
C459        C  0.37608975  0.89839573  0.95036064    -0.30700
N460        N  0.38024425  0.91431196  0.92199484     0.13500
C461        C  0.37519071  0.95481345  0.92334901    -0.30700
C462        C  0.44638658  0.97081611  0.02778098    -0.31000
N463        N  0.46954389  0.00429038  0.01854420     0.14000
H464        H  0.46039009  0.94750173  0.04314626     0.16700
C465        C  0.44291030  0.52319094  0.99614993    -0.31000
H466        H  0.45529119  0.54640257  0.98162498     0.16700
H467        H  0.37806124  0.97516739  0.90418554     0.16700
H468        H  0.27470186  0.94250269  0.03769687     0.16700
H469        H  0.37953121  0.86654654  0.95608889     0.16700
O470        O  0.12744991  0.65394057  0.03221381    -0.57300
C471        C  0.22288414  0.74721031  0.01656659     0.75400
O472        O  0.15547413  0.66824124  0.93370031    -0.58400
C473        C  0.12772660  0.61854699  0.02096947     0.75300
C474        C  0.07737226  0.73073894  0.95007851     0.77700
Cd475      Cd  0.15241830  0.69299243  0.98642944     1.37500
O476        O  0.23041061  0.71130305  0.00835312    -0.57300
O477        O  0.07029135  0.71325575  0.97505883    -0.56100
C478        C  0.19629880  0.67862925  0.93250307     0.77700
O479        O  0.11823588  0.73698657  0.94582955    -0.58400
O480        O  0.18155808  0.75788170  0.01388007    -0.56900
O481        O  0.13780026  0.61730296  0.99351957    -0.56900
O482        O  0.21821035  0.68726801  0.95754576    -0.56100
O483        O  0.40407780  0.71896298  0.84672040    -0.57300
C484        C  0.29475168  0.68481734  0.82805036     0.75400
O485        O  0.40602711  0.62327643  0.76774025    -0.58400
C486        C  0.94556765  0.70979327  0.84942056     0.75300
C487        C  0.37486394  0.60098191  0.86035736     0.77700
Cd488      Cd  0.38057397  0.66069567  0.81349529     1.37500
O489        O  0.32459021  0.71167073  0.82415152    -0.57300
O490        O  0.41062713  0.62131140  0.85829143    -0.56100
C491        C  0.38685289  0.64709549  0.74796537     0.77700
O492        O  0.34671587  0.60161616  0.83713896    -0.58400
O493        O  0.30184644  0.64951117  0.81837247    -0.56900
O494        O  0.45783646  0.68212750  0.83186505    -0.56900
O495        O  0.36771950  0.67771270  0.75842158    -0.56100
C496        C  0.12461172  0.51137013  0.07674673     0.30600
C497        C  0.12276681  0.57988089  0.04028210     0.30600
C498        C  0.08150045  0.51647421  0.05483917    -0.05600
C499        C  0.12521271  0.55228779  0.09296096    -0.06400
C500        C  0.16207622  0.51499162  0.05485965    -0.06300
C501        C  0.08015719  0.55102755  0.03559539    -0.05600
C502        C  0.12627539  0.58721392  0.07527741    -0.06400
C503        C  0.16154942  0.54976108  0.03681640    -0.06300
C504        C  0.03769393  0.54971679  0.01922782    -0.31700
N505        N  0.01411817  0.51643554  0.02843849     0.14800
C506        C  0.04001355  0.49730857  0.05072412    -0.31700
H507        H  0.02826389  0.97262316  0.06411423     0.16800
C508        C  0.13085155  0.61942708  0.09595171    -0.30700
N509        N  0.12999921  0.60402125  0.12477379     0.13500
C510        C  0.12502302  0.56353469  0.12285552    -0.30700
C511        C  0.19765684  0.54702637  0.01905427    -0.31000
N512        N  0.21971449  0.51155723  0.02574081     0.14000
H513        H  0.20710145  0.56925266  0.00255878     0.16700
C514        C  0.19852322  0.99182795  0.04748523    -0.31000
H515        H  0.20824466  0.96278564  0.05749741     0.16700
H516        H  0.12296587  0.54368558  0.14239601     0.16700
H517        H  0.02474656  0.57204560  0.00264653     0.16700
H518        H  0.13495473  0.65123767  0.09068623     0.16700
O519        O  0.51710839  0.55594720  0.49219189    -0.57300
C520        C  0.40627660  0.64739368  0.51772233     0.75400
O521        O  0.43237572  0.57780363  0.42586736    -0.58400
C522        C  0.51005326  0.52434374  0.50755270     0.75300
C523        C  0.35893462  0.53433801  0.44835811     0.77700
Cd524      Cd  0.43463954  0.57685449  0.48064058     1.37500
O525        O  0.41077659  0.61176429  0.52870543    -0.57300
O526        O  0.35196751  0.56064107  0.46843651    -0.56100
C527        C  0.96582732  0.60053511  0.42323681     0.77700
O528        O  0.39937131  0.52289573  0.44779893    -0.58400
O529        O  0.41241818  0.65027863  0.48958517    -0.56900
O530        O  0.46899099  0.51795566  0.51225029    -0.56900
O531        O  0.98338695  0.61688955  0.44755517    -0.56100
O532        O  0.19287877  0.53018314  0.33908923    -0.57300
C533        C  0.07844523  0.60131879  0.32665620     0.75400
O534        O  0.18989848  0.65932915  0.34278007    -0.58400
C535        C  0.23365949  0.54135802  0.34461841     0.75300
C536        C  0.16489631  0.61148515  0.25109227     0.77700
Cd537      Cd  0.16950245  0.59572892  0.31575064     1.37500
O538        O  0.09621112  0.56649102  0.32386403    -0.57300
O539        O  0.14554052  0.58139416  0.26259695    -0.56100
C540        C  0.17625492  0.64678193  0.36797144     0.77700
O541        O  0.19102784  0.63255393  0.26917446    -0.58400
O542        O  0.10047472  0.63183269  0.31849277    -0.56900
O543        O  0.24629902  0.57251588  0.33049049    -0.56900
O544        O  0.16305136  0.61042851  0.36878162    -0.56100
C545        C  0.40550234  0.75298141  0.57456466     0.30600
C546        C  0.40128199  0.68515126  0.53771821     0.30600
C547        C  0.44413004  0.74782786  0.55379273    -0.05600
C548        C  0.40264145  0.71184689  0.59045658    -0.06400
C549        C  0.36315800  0.75014871  0.55151000    -0.06300
C550        C  0.44233265  0.71347844  0.53556336    -0.05600
C551        C  0.40143408  0.67706590  0.57263141    -0.06400
C552        C  0.36084274  0.71592856  0.53213543    -0.06300
C553        C  0.47965469  0.71477027  0.51863503    -0.31700
N554        N  0.50362047  0.74906447  0.52597817     0.14800
C555        C  0.48208775  0.76951073  0.54743258    -0.31700
H556        H  0.49295418  0.79792382  0.55785801     0.16800
C557        C  0.39295747  0.64497770  0.59242413    -0.30700
N558        N  0.38850802  0.66049730  0.62081097     0.13500
C559        C  0.39314560  0.70103070  0.61933874    -0.30700
C560        C  0.31866657  0.71817965  0.51561068    -0.31000
N561        N  0.29598869  0.75178949  0.52467219     0.14000
H562        H  0.30525541  0.69619867  0.49902772     0.16700
C563        C  0.32226498  0.77032531  0.54702153    -0.31000
H564        H  0.31046169  0.79505378  0.56008184     0.16700
H565        H  0.38899044  0.72127001  0.63823889     0.16700
H566        H  0.48855998  0.69242536  0.50223659     0.16700
H567        H  0.38865848  0.61330913  0.58650090     0.16700
O568        O  0.03860772  0.96475628  0.53415294    -0.57300
C569        C  0.13901321  0.86825904  0.51931755     0.75400
O570        O  0.18260926  0.98884877  0.57277629    -0.58400
C571        C  0.04727865  0.99667350  0.51967687     0.75300
C572        C  0.06944809  0.93928499  0.60465601     0.77700
Cd573      Cd  0.11723617  0.94388414  0.55151391     1.37500
O574        O  0.16076734  0.90064565  0.51452290    -0.57300
O575        O  0.08730323  0.97185687  0.59619773    -0.56100
C576        C  0.19205560  0.96418754  0.59479229     0.77700
O577        O  0.07231605  0.90864327  0.58749251    -0.58400
O578        O  0.10917720  0.87189700  0.53798814    -0.56900
O579        O  0.08905366  0.00327393  0.51685644    -0.56900
O580        O  0.17219794  0.93031678  0.59319968    -0.56100
O581        O  0.43792650  0.95889755  0.71339551    -0.57300
C582        C  0.31516668  0.95466429  0.69993840     0.75400
O583        O  0.41599893  0.84826499  0.70498950    -0.58400
C584        C  0.46761183  0.93209783  0.70979092     0.75300
C585        C  0.38429876  0.89293121  0.79578540     0.77700
Cd586      Cd  0.38534147  0.90761939  0.73035925     1.37500
O587        O  0.35385043  0.97031851  0.70630093    -0.57300
O588        O  0.40461722  0.92256677  0.78458424    -0.56100
C589        C  0.38809268  0.85039268  0.68160419     0.77700
O590        O  0.36253158  0.86992268  0.77672385    -0.58400
O591        O  0.30723626  0.92120972  0.71294819    -0.56900
O592        O  0.46272197  0.89812371  0.72268684    -0.56900
O593        O  0.35404580  0.87258254  0.68403913    -0.56100
C594        C  0.14362097  0.76075741  0.46499496     0.30600
C595        C  0.14369037  0.82877288  0.50137506     0.30600
C596        C  0.18635574  0.76822112  0.48594104    -0.05600
C597        C  0.13558190  0.80162554  0.44885147    -0.06400
C598        C  0.10594105  0.76184256  0.48749208    -0.06300
C599        C  0.18785296  0.80240728  0.50463210    -0.05600
C600        C  0.13602532  0.83618472  0.46668401    -0.06400
C601        C  0.10682355  0.79626403  0.50636048    -0.06300
C602        C  0.22982098  0.79978027  0.52165422    -0.31700
N603        N  0.25221783  0.76542417  0.51336081     0.14800
C604        C  0.22550286  0.74629762  0.49160102    -0.31700
H605        H  0.23354397  0.71814399  0.48074782     0.16800
C606        C  0.12224937  0.86806553  0.44719286    -0.30700
N607        N  0.11287311  0.85268259  0.41864919     0.13500
C608        C  0.12047682  0.81232909  0.41969264    -0.30700
C609        C  0.06904244  0.79433530  0.52270387    -0.31000
N610        N  0.04467374  0.76090357  0.51410588     0.14000
H611        H  0.05897815  0.81613959  0.53902804     0.16700
C612        C  0.06593646  0.74152122  0.49202329    -0.31000
H613        H  0.05212242  0.71590957  0.47923778     0.16700
H614        H  0.11434385  0.79200598  0.40046979     0.16700
H615        H  0.24254697  0.82117258  0.53888332     0.16700
H616        H  0.11739157  0.89936529  0.45345783     0.16700
C617        C  0.23672492  0.96179683  0.67744223    -0.25800
C618        C  0.28240639  0.97097296  0.67568330    -0.13800
C619        C  0.29687813  0.98605440  0.64777173     0.36800
C620        C  0.26610668  0.98714909  0.62139162    -0.25200
C621        C  0.22151726  0.97371692  0.62276042    -0.14500
C622        C  0.20611683  0.96345619  0.65144155     0.37900
N623        N  0.15950295  0.95302328  0.65373792    -0.88700
H624        H  0.22539872  0.95079873  0.69883761     0.19000
H625        H  0.27773665  0.99556152  0.59947880     0.19000
N626        N  0.34349075  0.99659142  0.64562030    -0.87700
H627        H  0.14063279  0.97929188  0.64876499     0.36400
H628        H  0.15383455  0.94479442  0.67613749     0.41500
H629        H  0.35040964  0.02212763  0.65929635     0.41100
H630        H  0.34895780  0.00530313  0.62330228     0.36000
C631        C  0.51561723  0.90018549  0.67410218    -0.25800
C632        C  0.50142827  0.93639064  0.68719574    -0.13800
C633        C  0.51276577  0.97390015  0.67398962     0.36800
C634        C  0.53612936  0.97406719  0.64759864    -0.25200
C635        C  0.54708272  0.93762842  0.63336031    -0.14500
C636        C  0.53727360  0.90041393  0.64713338     0.37900
N637        N  0.04841868  0.86260875  0.63365032    -0.88700
H638        H  0.50714304  0.87097062  0.68355706     0.19000
H639        H  0.54424480  0.00300559  0.63754551     0.19000
N640        N  0.50090960  0.01212410  0.68649207    -0.87700
H641        H  0.01855812  0.84606150  0.62904976     0.36400
H642        H  0.06930550  0.84631020  0.64964663     0.41500
H643        H  0.51276664  0.01277394  0.70959061     0.41100
H644        H  0.46582847  0.01517092  0.68454027     0.36000
C645        C  0.38165389  0.82023678  0.59755762    -0.25800
C646        C  0.41157823  0.78730574  0.59840513    -0.13800
C647        C  0.44205828  0.78311546  0.62521985     0.36800
C648        C  0.43322641  0.80373026  0.65189326    -0.25200
C649        C  0.39650481  0.83014562  0.65246895    -0.14500
C650        C  0.37262686  0.84070679  0.62438241     0.37900
N651        N  0.33970604  0.87251291  0.62276093    -0.88700
H652        H  0.36540536  0.83060317  0.57613799     0.19000
H653        H  0.45503743  0.79829203  0.67252809     0.19000
N654        N  0.48096226  0.75701814  0.62703749    -0.87700
H655        H  0.30889205  0.86041488  0.61374187     0.36400
H656        H  0.34968203  0.89471104  0.60758246     0.41500
H657        H  0.48568994  0.74296550  0.60639894     0.41100
H658        H  0.47621936  0.73411498  0.64299679     0.36000
C659        C  0.14714992  0.66026784  0.41867386    -0.25800
C660        C  0.17267253  0.67327602  0.39473604    -0.13800
C661        C  0.19269481  0.71179267  0.39636521     0.36800
C662        C  0.18273855  0.73785676  0.41982606    -0.25200
C663        C  0.15259861  0.72715230  0.44199076    -0.14500
C664        C  0.13873241  0.68595856  0.44299075     0.37900
N665        N  0.12221507  0.66735342  0.46945146    -0.88700
H666        H  0.13429018  0.62946581  0.41891777     0.19000
H667        H  0.19883503  0.76740425  0.42072998     0.19000
N668        N  0.22313613  0.72443940  0.37430819    -0.87700
H669        H  0.08797263  0.66060899  0.46474507     0.36400
H670        H  0.12757363  0.68551084  0.48875709     0.41500
H671        H  0.25167197  0.70585853  0.37721921     0.41100
H672        H  0.23438130  0.75412373  0.37852139     0.36000
C673        C  0.24723532  0.52830126  0.39980887    -0.25800
C674        C  0.26270409  0.52446169  0.37055123    -0.13800
C675        C  0.30840423  0.51536640  0.36792090     0.36800
C676        C  0.33841259  0.51342546  0.39452042    -0.25200
C677        C  0.32401832  0.52261708  0.42354984    -0.14500
C678        C  0.27756695  0.52843864  0.42617884     0.37900
N679        N  0.26132073  0.53668076  0.45531781    -0.88700
H680        H  0.21210512  0.53562442  0.40203341     0.19000
H681        H  0.37394996  0.50851944  0.39214427     0.19000
N682        N  0.32449064  0.51056112  0.33817003    -0.87700
H683        H  0.23707450  0.51471785  0.45946290     0.36400
H684        H  0.24534613  0.56494216  0.45403497     0.41500
H685        H  0.30851176  0.48508844  0.32817176     0.41100
H686        H  0.35916673  0.50436515  0.34007625     0.36000
C687        C  0.01196930  0.57222432  0.34887756    -0.25800
C688        C  0.03795262  0.60652114  0.34342649    -0.13800
C689        C  0.03263011  0.64203181  0.36082742     0.36800
C690        C  0.00691834  0.64046094  0.38615470    -0.25200
C691        C  0.98501653  0.60460212  0.39355309    -0.14500
C692        C  0.98551712  0.57093194  0.37373302     0.37900
N693        N  0.96239741  0.53405582  0.38017800    -0.88700
H694        H  0.01520175  0.54501285  0.33545899     0.19000
H695        H  0.00567519  0.66677728  0.40077618     0.19000
N696        N  0.05562056  0.67893203  0.35423880    -0.87700
H697        H  0.98624216  0.51077131  0.38304243     0.36400
H698        H  0.94028813  0.52711827  0.36113357     0.41500
H699        H  0.07630321  0.68717697  0.37362317     0.41100
H700        H  0.03134378  0.70166631  0.35005785     0.36000
C701        C  0.10257645  0.62354090  0.17298166    -0.25800
C702        C  0.13821943  0.62317552  0.15399809    -0.13800
C703        C  0.18300086  0.62640973  0.16733772     0.36800
C704        C  0.19133893  0.62641648  0.19947917    -0.25200
C705        C  0.15571164  0.62151875  0.21823741    -0.14500
C706        C  0.11079908  0.62229348  0.20494895     0.37900
N707        N  0.07375618  0.61968052  0.22398595    -0.88700
H708        H  0.06834398  0.62030207  0.16268048     0.19000
H709        H  0.22577372  0.62653744  0.20975769     0.19000
N710        N  0.21990437  0.62618465  0.14815310    -0.87700
H711        H  0.04290628  0.61996432  0.21066523     0.36400
H712        H  0.07450732  0.64581642  0.23743460     0.41500
H713        H  0.21994757  0.59809080  0.13720126     0.41100
H714        H  0.25071486  0.62840074  0.16139849     0.36000
C715        C  0.42223372  0.62884487  0.66739149    -0.25800
C716        C  0.38300470  0.64066395  0.64954351    -0.13800
C717        C  0.34328445  0.64785515  0.66432484     0.36800
C718        C  0.34507731  0.64785626  0.69638662    -0.25200
C719        C  0.38545730  0.63985776  0.71436952    -0.14500
C720        C  0.42388484  0.62808251  0.69966919     0.37900
N721        N  0.46546527  0.61895700  0.71740749    -0.88700
H722        H  0.45292376  0.62427503  0.65615882     0.19000
H723        H  0.31493170  0.65569284  0.70736173     0.19000
N724        N  0.30131464  0.65779541  0.64732307    -0.87700
H725        H  0.99109564  0.61313774  0.70306807     0.36400
H726        H  0.46056876  0.59198087  0.72930554     0.41500
H727        H  0.30419106  0.65569567  0.62382182     0.41100
H728        H  0.29381127  0.68800328  0.65197405     0.36000
C729        C  0.96316453  0.73139621  0.90361424    -0.25800
C730        C  0.97730707  0.72711856  0.87392980    -0.13800
C731        C  0.02318741  0.73253181  0.86950992     0.36800
C732        C  0.05455916  0.73881855  0.89474008    -0.25200
C733        C  0.04140915  0.73806047  0.92485708    -0.14500
C734        C  0.99485717  0.73642706  0.92921534     0.37900
N735        N  0.98013455  0.73799933  0.95955106    -0.88700
H736        H  0.92773427  0.72754734  0.90715400     0.19000
H737        H  0.09000825  0.74062303  0.89072196     0.19000
N738        N  0.03837340  0.72988894  0.83946465    -0.87700
H739        H  0.94493560  0.73595256  0.95883776     0.36400
H740        H  0.98894452  0.76654776  0.96850797     0.41500
H741        H  0.06202727  0.70645739  0.83948522     0.41100
H742        H  0.05474433  0.75707784  0.83482180     0.36000
C743        C  0.20376376  0.65843113  0.87859874    -0.25800
C744        C  0.21638288  0.68403102  0.90321841    -0.13800
C745        C  0.24600297  0.71689147  0.89905231     0.36800
C746        C  0.26658238  0.72038837  0.87157518    -0.25200
C747        C  0.25852951  0.69148690  0.84841994    -0.14500
C748        C  0.22466352  0.66189220  0.85120870     0.37900
N749        N  0.21278837  0.63427366  0.82674257    -0.88700
H750        H  0.17911674  0.63458759  0.88105913     0.19000
H751        H  0.29196911  0.74368721  0.86944324     0.19000
N752        N  0.25563003  0.74621215  0.92291069    -0.87700
H753        H  0.17825065  0.63739336  0.82048094     0.36400
H754        H  0.21831459  0.60473364  0.83497544     0.41500
H755        H  0.22558051  0.76150234  0.92600908     0.41100
H756        H  0.27843641  0.76813821  0.91626085     0.36000
C757        C  0.34913162  0.87813228  0.87658803    -0.25800
C758        C  0.38686316  0.89448174  0.89365193    -0.13800
C759        C  0.42621242  0.90308368  0.87889500     0.36800
C760        C  0.42562661  0.89878015  0.84704359    -0.25200
C761        C  0.38626076  0.88673459  0.82945967    -0.14500
C762        C  0.34838458  0.87402899  0.84453661     0.37900
N763        N  0.30801811  0.86058823  0.82717292    -0.88700
H764        H  0.31874814  0.87230503  0.88794698     0.19000
H765        H  0.45519251  0.90748660  0.83564120     0.19000
N766        N  0.46575870  0.91862729  0.89615015    -0.87700
H767        H  0.28252849  0.85459902  0.84160148     0.36400
H768        H  0.31535778  0.83287840  0.81718407     0.41500
H769        H  0.45850239  0.94777090  0.90362127     0.41100
H770        H  0.49231315  0.92200961  0.88214759     0.36000
C771        C  0.32382028  0.53354082  0.91923663    -0.25800
C772        C  0.35422501  0.54052414  0.94499961    -0.13800
C773        C  0.38074256  0.57601286  0.94505027     0.36800
C774        C  0.38803946  0.59447431  0.91688473    -0.25200
C775        C  0.36518423  0.58078399  0.88938907    -0.14500
C776        C  0.33003399  0.55202686  0.89123885     0.37900
N777        N  0.30182241  0.53903851  0.86506378    -0.88700
H778        H  0.29910870  0.50932398  0.91973955     0.19000
H779        H  0.41065253  0.62030727  0.91654254     0.19000
N780        N  0.39641076  0.59513385  0.97329414    -0.87700
H781        H  0.32227537  0.52791490  0.84874826     0.36400
H782        H  0.28329792  0.56384752  0.85608021     0.41500
H783        H  0.36803973  0.60344756  0.98435686     0.41100
H784        H  0.41399006  0.62188343  0.96914394     0.36000
C785        C  0.05961997  0.86023007  0.34074586    -0.25800
C786        C  0.09432283  0.87950943  0.32649324    -0.13800
C787        C  0.12845142  0.90065532  0.34465497     0.36800
C788        C  0.12998643  0.89715537  0.37666124    -0.25200
C789        C  0.09850029  0.87310184  0.39060804    -0.14500
C790        C  0.06068079  0.85775898  0.37258333     0.37900
N791        N  0.02526996  0.83587461  0.38595608    -0.88700
H792        H  0.03283140  0.84482179  0.32701717     0.19000
H793        H  0.15882972  0.90927369  0.39044349     0.19000
N794        N  0.16377523  0.92321257  0.33168273    -0.87700
H795        H  0.99497535  0.85092701  0.37964930     0.36400
H796        H  0.02953401  0.83732555  0.40980248     0.41500
H797        H  0.15948676  0.92393514  0.30788529     0.41100
H798        H  0.19431038  0.90834545  0.33765874     0.36000
C799        C  0.10025520  0.94396063  0.09936823    -0.25800
C800        C  0.13118416  0.97626080  0.09994469    -0.13800
C801        C  0.16431307  0.97800621  0.12547245     0.36800
C802        C  0.15703886  0.95623040  0.15200425    -0.25200
C803        C  0.11943551  0.93087207  0.15343945    -0.14500
C804        C  0.09279604  0.92207721  0.12608312     0.37900
N805        N  0.05976046  0.89000595  0.12508216    -0.88700
H806        H  0.08241956  0.93513265  0.07812496     0.19000
H807        H  0.18074287  0.95998633  0.17193800     0.19000
N808        N  0.20386184  0.50187885  0.12632381    -0.87700
H809        H  0.04622990  0.88510570  0.10264546     0.36400
H810        H  0.03288983  0.89977850  0.13708806     0.41500
H811        H  0.20707029  0.51773656  0.10612735     0.41100
H812        H  0.20382184  0.02367615  0.14370252     0.36000
C813        C  0.43659603  0.77548767  0.14871824    -0.25800
C814        C  0.44976967  0.78235079  0.11906082    -0.13800
C815        C  0.49598697  0.78648895  0.11477883     0.36800
C816        C  0.52757453  0.78789167  0.14061771    -0.25200
C817        C  0.51335846  0.78650667  0.17042559    -0.14500
C818        C  0.46771382  0.77800890  0.17436326     0.37900
N819        N  0.45177638  0.77336328  0.20411489    -0.88700
H820        H  0.40109135  0.77183455  0.15217750     0.19000
H821        H  0.56269474  0.79440175  0.13752675     0.19000
N822        N  0.51004486  0.79349150  0.08466805    -0.87700
H823        H  0.45690183  0.80047844  0.21613248     0.36400
H824        H  0.47072094  0.75057400  0.21576462     0.41500
H825        H  0.50281142  0.76721233  0.07194859     0.41100
H826        H  0.54505210  0.79763113  0.08556834     0.36000
C827        C  0.25188244  0.78607407  0.15257489    -0.25800
C828        C  0.27370319  0.82173005  0.14406301    -0.13800
C829        C  0.27929977  0.85403605  0.16491245     0.36800
C830        C  0.25829066  0.85188026  0.19231648    -0.25200
C831        C  0.23147484  0.81824582  0.19906681    -0.14500
C832        C  0.23084725  0.78399392  0.17991123     0.37900
N833        N  0.20675172  0.74793815  0.18715036    -0.88700
H834        H  0.24921002  0.76029544  0.13728311     0.19000
H835        H  0.25994692  0.87804551  0.20722044     0.19000
N836        N  0.30550212  0.88913396  0.15796595    -0.87700
H837        H  0.22943149  0.72365746  0.18819637     0.36400
H838        H  0.18195896  0.74237283  0.16933334     0.41500
H839        H  0.33893206  0.87968554  0.15702736     0.41100
H840        H  0.30572183  0.91038402  0.17558363     0.36000
O841        O  0.75438089  0.31033779  0.03839463    -0.57300
C842        C  0.86021595  0.39876309  0.02429680     0.75400
O843        O  0.79757973  0.35686807  0.10024640    -0.58400
C844        C  0.76080593  0.27458614  0.02916954     0.75300
C845        C  0.91533760  0.29586758  0.09493608     0.77700
Cd846      Cd  0.83541267  0.32435754  0.05900637     1.37500
O847        O  0.86335108  0.36319337  0.01368156    -0.57300
O848        O  0.88972645  0.32382127  0.10236697    -0.56100
C849        C  0.79354080  0.32377004  0.11488181     0.77700
O850        O  0.90732787  0.28141340  0.06817002    -0.58400
O851        O  0.84751813  0.40011353  0.05111992    -0.56900
O852        O  0.80181991  0.26316268  0.03083770    -0.56900
O853        O  0.80614012  0.29173662  0.10242254    -0.56100
O854        O  0.58557048  0.29194497  0.19932811    -0.57300
C855        C  0.69476184  0.32610795  0.21911314     0.75400
O856        O  0.64410151  0.40531252  0.20269765    -0.58400
C857        C  0.54463824  0.30254525  0.19483083     0.75300
C858        C  0.59644214  0.37029905  0.29373526     0.77700
Cd859      Cd  0.60821279  0.35189834  0.23058941     1.37500
O860        O  0.66366009  0.30005415  0.22135587    -0.57300
O861        O  0.60380615  0.33461195  0.28482723    -0.56100
C862        C  0.61150218  0.40987888  0.18261030     0.77700
O863        O  0.59226251  0.39756840  0.27334583    -0.58400
O864        O  0.68817335  0.36108933  0.22963449    -0.56900
O865        O  0.53210440  0.33201756  0.21054754    -0.60100
O866        O  0.57450097  0.39349139  0.18814090    -0.56100
C867        C  0.86124713  0.00591474  0.96843341     0.30600
C868        C  0.86457383  0.43737338  0.00479165     0.30600
C869        C  0.82015339  0.49827516  0.98666525    -0.05600
C870        C  0.86659698  0.46512880  0.95240561    -0.06400
C871        C  0.90110090  0.50429966  0.99281191    -0.06300
C872        C  0.82171009  0.46377458  0.00496987    -0.05600
C873        C  0.86795577  0.43009722  0.97018087    -0.06400
C874        C  0.90314811  0.46976389  0.01211722    -0.06300
C875        C  0.78340801  0.46441284  0.02091729    -0.31700
N876        N  0.75934525  0.49844982  0.01284457     0.14800
C877        C  0.78196681  0.01942054  0.99187175    -0.31700
H878        H  0.77206189  0.04845547  0.98193579     0.16800
C879        C  0.87554964  0.39822127  0.95036477    -0.30700
N880        N  0.87948101  0.41403574  0.92193572     0.13500
C881        C  0.87436010  0.45453755  0.92322507    -0.30700
C882        C  0.94611521  0.47090761  0.02760691    -0.31000
N883        N  0.96924703  0.50435531  0.01831040     0.14000
H884        H  0.96008770  0.44767294  0.04305381     0.16700
C885        C  0.94318382  0.02319034  0.99638037    -0.31000
H886        H  0.95559419  0.04638635  0.98185725     0.16700
H887        H  0.87718169  0.47482969  0.90401995     0.16700
H888        H  0.77459658  0.44249773  0.03783577     0.16700
H889        H  0.87918928  0.36641053  0.95617098     0.16700
O890        O  0.62718031  0.15412218  0.03230482    -0.57300
C891        C  0.72288778  0.24744249  0.01712777     0.75400
O892        O  0.65554159  0.16896761  0.93391503    -0.58400
C893        C  0.62784655  0.11875409  0.02104011     0.75300
C894        C  0.57735299  0.23121652  0.95032082     0.77700
Cd895      Cd  0.65241546  0.19347946  0.98670199     1.37500
O896        O  0.73037541  0.21160413  0.00874400    -0.57300
O897        O  0.57022810  0.21334693  0.97514078    -0.56100
C898        C  0.69633297  0.17945024  0.93269889     0.77700
O899        O  0.61821094  0.23792212  0.94629717    -0.58400
O900        O  0.68157127  0.25815380  0.01449854    -0.56900
O901        O  0.63824862  0.11765719  0.99365706    -0.56900
O902        O  0.71821292  0.18817380  0.95773343    -0.56100
O903        O  0.90436758  0.21916200  0.84667870    -0.57300
C904        C  0.79484778  0.18498074  0.82821294     0.75400
O905        O  0.90594538  0.12330836  0.76774437    -0.58400
C906        C  0.44586095  0.20990463  0.84944490     0.75300
C907        C  0.87496081  0.10117917  0.86045429     0.77700
Cd908      Cd  0.88066319  0.16083361  0.81354096     1.37500
O909        O  0.82463882  0.21182489  0.82416268    -0.57300
O910        O  0.91076528  0.12142851  0.85832727    -0.56100
C911        C  0.88676275  0.14710619  0.74795644     0.77700
O912        O  0.84672996  0.10187178  0.83728127    -0.58400
O913        O  0.80195999  0.14961401  0.81866173    -0.56900
O914        O  0.95804962  0.18214203  0.83194821    -0.56900
O915        O  0.86767396  0.17775003  0.75841058    -0.56100
C916        C  0.62514963  0.01144677  0.07673698     0.30600
C917        C  0.62301777  0.07999298  0.04029932     0.30600
C918        C  0.58197052  0.01642632  0.05486881    -0.05600
C919        C  0.62562665  0.05233679  0.09296937    -0.06400
C920        C  0.66252185  0.01519032  0.05482551    -0.06300
C921        C  0.58047240  0.05102639  0.03565657    -0.05600
C922        C  0.62655183  0.08728374  0.07530075    -0.06400
C923        C  0.66189147  0.04995436  0.03678131    -0.06300
C924        C  0.53793137  0.04968954  0.01940492    -0.31700
N925        N  0.51446156  0.01633493  0.02861007     0.14800
C926        C  0.54051604  0.99715758  0.05080067    -0.31700
H927        H  0.52768203  0.47287026  0.06407275     0.16800
C928        C  0.63100926  0.11948214  0.09599070    -0.30700
N929        N  0.63024041  0.10403642  0.12480589     0.13500
C930        C  0.62543334  0.06353401  0.12287226    -0.30700
C931        C  0.69797573  0.04720946  0.01897591    -0.31000
N932        N  0.72007445  0.01174886  0.02567277     0.14000
H933        H  0.70735539  0.06939527  0.00243014     0.16700
C934        C  0.69813947  0.49163808  0.04749888    -0.31000
H935        H  0.70783434  0.46257796  0.05749237     0.16700
H936        H  0.62349909  0.04363587  0.14239940     0.16700
H937        H  0.52485245  0.07207329  0.00291093     0.16700
H938        H  0.63496665  0.15131442  0.09074147     0.16700
O939        O  0.01716135  0.05605346  0.49216937    -0.57300
C940        C  0.90621092  0.14731315  0.51764892     0.75400
O941        O  0.93238831  0.07815514  0.42567564    -0.58400
C942        C  0.01006485  0.02437782  0.50743861     0.75300
C943        C  0.85919545  0.03420441  0.44815501     0.77700
Cd944      Cd  0.93471345  0.07691062  0.48047607     1.37500
O945        O  0.91078884  0.11167238  0.52859562    -0.57300
O946        O  0.85212830  0.06040294  0.46828983    -0.56100
C947        C  0.46591552  0.10084652  0.42309142     0.77700
O948        O  0.89969129  0.02296996  0.44752138    -0.58400
O949        O  0.91229718  0.15025796  0.48950683    -0.56900
O950        O  0.96897630  0.01791632  0.51201923    -0.56900
O951        O  0.48355096  0.11703634  0.44745300    -0.56100
O952        O  0.69304037  0.03020764  0.33906586    -0.57300
C953        C  0.57883291  0.10156410  0.32668601     0.75400
O954        O  0.69049162  0.15933134  0.34288090    -0.58400
C955        C  0.73390103  0.04118538  0.34450275     0.75300
C956        C  0.66505763  0.11162980  0.25111818     0.77700
Cd957      Cd  0.66988445  0.09581412  0.31577252     1.37500
O958        O  0.59654294  0.06670775  0.32391832    -0.57300
O959        O  0.64564614  0.08159140  0.26265122    -0.56100
C960        C  0.67676177  0.14677276  0.36804420     0.77700
O961        O  0.69133517  0.13261758  0.26916458    -0.58400
O962        O  0.60093539  0.13204056  0.31853478    -0.56900
O963        O  0.74665419  0.07226514  0.33032981    -0.56900
O964        O  0.66348300  0.11044034  0.36880971    -0.56100
C965        C  0.90548643  0.25282576  0.57455723     0.30600
C966        C  0.90122188  0.18503055  0.53768496     0.30600
C967        C  0.94408403  0.24769874  0.55375521    -0.05600
C968        C  0.90266464  0.21168268  0.59044184    -0.06400
C969        C  0.86309550  0.24999580  0.55154440    -0.06300
C970        C  0.94226348  0.21336945  0.53550954    -0.05600
C971        C  0.90143964  0.17690992  0.57260383    -0.06400
C972        C  0.86076236  0.21579909  0.53215094    -0.06300
C973        C  0.97961046  0.21464375  0.51859621    -0.31700
N974        N  0.00361373  0.24891058  0.52596658     0.14800
C975        C  0.98208037  0.26935176  0.54742492    -0.31700
H976        H  0.99297958  0.29773637  0.55788162     0.16800
C977        C  0.89284490  0.14482900  0.59238062    -0.30700
N978        N  0.88835105  0.16034492  0.62076671     0.13500
C979        C  0.89305647  0.20087218  0.61930325    -0.30700
C980        C  0.81857050  0.21806901  0.51564732    -0.31000
N981        N  0.79589062  0.25166015  0.52474647     0.14000
H982        H  0.80516195  0.19612159  0.49903757     0.16700
C983        C  0.82218560  0.27016485  0.54710455    -0.31000
H984        H  0.81040962  0.29488645  0.56018911     0.16700
H985        H  0.88887523  0.22111808  0.63819564     0.16700
H986        H  0.98851676  0.19229676  0.50219926     0.16700
H987        H  0.88849118  0.11317038  0.58644092     0.16700
O988        O  0.53862849  0.46478697  0.53432607    -0.57300
C989        C  0.63892777  0.36819907  0.51927611     0.75400
O990        O  0.68270412  0.48868682  0.57274553    -0.58400
C991        C  0.54728054  0.49663284  0.51976067     0.75300
C992        C  0.56958011  0.43921569  0.60473135     0.77700
Cd993      Cd  0.61725272  0.44380074  0.55153128     1.37500
O994        O  0.66077830  0.40055140  0.51455021    -0.57300
O995        O  0.58735376  0.47180290  0.59622549    -0.56100
C996        C  0.69212813  0.46403744  0.59477341     0.77700
O997        O  0.57247909  0.40855542  0.58758894    -0.58400
O998        O  0.60901475  0.37186418  0.53788917    -0.56900
O999        O  0.58904204  0.50314975  0.51682481    -0.56900
O1000       O  0.67221534  0.43019161  0.59320988    -0.56100
O1001       O  0.93820659  0.45888296  0.71354077    -0.57300
C1002       C  0.81529319  0.45466393  0.69992326     0.75400
O1003       O  0.91610910  0.34830171  0.70490757    -0.58400
C1004       C  0.96783625  0.43203835  0.70991520     0.75300
C1005       C  0.88426385  0.39268845  0.79578094     0.77700
Cd1006     Cd  0.88546037  0.40759985  0.73035693     1.37500
O1007       O  0.85399593  0.47029725  0.70625290    -0.57300
O1008       O  0.90443830  0.42246792  0.78465471    -0.56100
C1009       C  0.88823834  0.35046964  0.68150656     0.77700
O1010       O  0.86271720  0.36962811  0.77664732    -0.58400
O1011       O  0.80734066  0.42124950  0.71298270    -0.56900
O1012       O  0.96284591  0.39804564  0.72275926    -0.56900
O1013       O  0.85422186  0.37270306  0.68392757    -0.56100
C1014       C  0.64362057  0.26071079  0.46496495     0.30600
C1015       C  0.64362381  0.32872185  0.50133141     0.30600
C1016       C  0.68633386  0.26819174  0.48592568    -0.05600
C1017       C  0.63556721  0.30156431  0.44880715    -0.06400
C1018       C  0.60591816  0.26177301  0.48745107    -0.06300
C1019       C  0.68780961  0.30237500  0.50461267    -0.05600
C1020       C  0.63594668  0.33613009  0.46662801    -0.06400
C1021       C  0.60678532  0.29618691  0.50632416    -0.06300
C1022       C  0.72974954  0.29970965  0.52168428    -0.31700
N1023       N  0.75214013  0.26533481  0.51341433     0.14800
C1024       C  0.72544770  0.24623363  0.49163138    -0.31700
H1025       H  0.73347519  0.21806367  0.48079613     0.16800
C1026       C  0.62190878  0.36794591  0.44713246    -0.30700
N1027       N  0.61248371  0.35251400  0.41860219     0.13500
C1028       C  0.62028017  0.31219230  0.41966414    -0.30700
C1029       C  0.56905140  0.29420100  0.52271209    -0.31000
N1030       N  0.54468617  0.26076748  0.51411015     0.14000
H1031       H  0.55901606  0.31597075  0.53907075     0.16700
C1032       C  0.56593389  0.24141897  0.49200133    -0.31000
H1033       H  0.55212346  0.21580813  0.47921243     0.16700
H1034       H  0.61410651  0.29182044  0.40047438     0.16700
H1035       H  0.74245439  0.32107920  0.53893659     0.16700
H1036       H  0.61686246  0.39921607  0.45340102     0.16700
C1037       C  0.73685024  0.46181496  0.67742594    -0.25800
C1038       C  0.78254233  0.47092826  0.67564163    -0.13800
C1039       C  0.79702500  0.48586696  0.64769114     0.36800
C1040       C  0.76624060  0.48691740  0.62131752    -0.25200
C1041       C  0.72163067  0.47356495  0.62272246    -0.14500
C1042       C  0.70623542  0.46340556  0.65142503     0.37900
N1043       N  0.65961801  0.45300945  0.65374651    -0.88700
H1044       H  0.72551956  0.45091126  0.69884622     0.19000
H1045       H  0.77787075  0.49523400  0.59938508     0.19000
N1046       N  0.84365736  0.49629714  0.64549926    -0.87700
H1047       H  0.64076513  0.47927370  0.64873726     0.36400
H1048       H  0.65395452  0.44484683  0.67616310     0.41500
H1049       H  0.85064067  0.52188708  0.65910743     0.41100
H1050       H  0.84913121  0.50488731  0.62315785     0.36000
C1051       C  0.01572418  0.40008591  0.67417723    -0.25800
C1052       C  0.00168050  0.43630031  0.68733272    -0.13800
C1053       C  0.01315141  0.47380601  0.67417927     0.36800
C1054       C  0.03651254  0.47396495  0.64778514    -0.25200
C1055       C  0.04728623  0.43752675  0.63347133    -0.14500
C1056       C  0.03732129  0.40031013  0.64718499     0.37900
N1057       N  0.54818041  0.36253491  0.63359358    -0.88700
H1058       H  0.00713929  0.37087308  0.68358555     0.19000
H1059       H  0.04474024  0.50290394  0.63777937     0.19000
N1060       N  0.00140462  0.51203389  0.68672542    -0.87700
H1061       H  0.51821030  0.34615164  0.62897988     0.36400
H1062       H  0.56899322  0.34607652  0.64953393     0.41500
H1063       H  0.01324805  0.51261073  0.70982858     0.41100
H1064       H  0.96633365  0.51516167  0.68476906     0.36000
C1065       C  0.88175796  0.32015338  0.59748842    -0.25800
C1066       C  0.91159333  0.28715443  0.59838464    -0.13800
C1067       C  0.94204989  0.28294985  0.62520713     0.36800
C1068       C  0.93326009  0.30363906  0.65185558    -0.25200
C1069       C  0.89663531  0.33017242  0.65238663    -0.14500
C1070       C  0.87281719  0.34074237  0.62428056     0.37900
N1071       N  0.84005156  0.37267781  0.62260605    -0.88700
H1072       H  0.86550942  0.33047530  0.57605304     0.19000
H1073       H  0.95503477  0.29817996  0.67250368     0.19000
N1074       N  0.98089933  0.25678574  0.62704890    -0.87700
H1075       H  0.80918392  0.36067985  0.61359177     0.36400
H1076       H  0.85014696  0.39478920  0.60740085     0.41500
H1077       H  0.98562626  0.24272479  0.60641331     0.41100
H1078       H  0.97609276  0.23389823  0.64301026     0.36000
C1079       C  0.64751567  0.16020903  0.41870744    -0.25800
C1080       C  0.67310899  0.17324351  0.39481222    -0.13800
C1081       C  0.69303797  0.21179658  0.39645120     0.36800
C1082       C  0.68289177  0.23787382  0.41985446    -0.25200
C1083       C  0.65269342  0.22712604  0.44197360    -0.14500
C1084       C  0.63892192  0.18590988  0.44297907     0.37900
N1085       N  0.62230138  0.16730964  0.46940647    -0.88700
H1086       H  0.63471593  0.12938693  0.41894636     0.19000
H1087       H  0.69890715  0.26745694  0.42076047     0.19000
N1088       N  0.72356974  0.22446901  0.37446001    -0.87700
H1089       H  0.58806419  0.16059306  0.46464927     0.36400
H1090       H  0.62762431  0.18545941  0.48872114     0.41500
H1091       H  0.75214093  0.20594107  0.37745268     0.41100
H1092       H  0.73473061  0.25417766  0.37867326     0.36000
C1093       C  0.74747881  0.02805147  0.39967805    -0.25800
C1094       C  0.76292257  0.02419967  0.37041538    -0.13800
C1095       C  0.80858897  0.01498599  0.36777225     0.36800
C1096       C  0.83863146  0.01308495  0.39435977    -0.25200
C1097       C  0.82427473  0.02236525  0.42338486    -0.14500
C1098       C  0.77782660  0.02816058  0.42603695     0.37900
N1099       N  0.76159747  0.03633974  0.45519103    -0.88700
H1100       H  0.71236062  0.03540417  0.40191759     0.19000
H1101       H  0.87415589  0.00812852  0.39197233     0.19000
N1102       N  0.82462023  0.00999135  0.33802412    -0.87700
H1103       H  0.73738594  0.01434194  0.45932794     0.36400
H1104       H  0.74558625  0.06458538  0.45394008     0.41500
H1105       H  0.80849692  0.98450893  0.32808875     0.41100
H1106       H  0.85924127  0.00370204  0.33991829     0.36000
C1107       C  0.51215198  0.07260434  0.34875069    -0.25800
C1108       C  0.53829146  0.10683507  0.34339598    -0.13800
C1109       C  0.53300701  0.14233371  0.36081565     0.36800
C1110       C  0.50718759  0.14078667  0.38609376    -0.25200
C1111       C  0.48513166  0.10496994  0.39341277    -0.14500
C1112       C  0.48556506  0.07134947  0.37353946     0.37900
N1113       N  0.46222607  0.03454725  0.37986678    -0.88700
H1114       H  0.51534062  0.04541047  0.33530501     0.19000
H1115       H  0.50599026  0.16707625  0.40074611     0.19000
N1116       N  0.55614787  0.17918430  0.35430314    -0.87700
H1117       H  0.48593540  0.01116321  0.38273229     0.36400
H1118       H  0.44014862  0.02775563  0.36076583     0.41500
H1119       H  0.57676976  0.18736010  0.37372456     0.41100
H1120       H  0.53194802  0.20198801  0.35009353     0.36000
C1121       C  0.60269791  0.12346263  0.17300181    -0.25800
C1122       C  0.63835417  0.12320762  0.15402924    -0.13800
C1123       C  0.68311237  0.12664905  0.16736933     0.36800
C1124       C  0.69144110  0.12667737  0.19950969    -0.25200
C1125       C  0.65582793  0.12165953  0.21826471    -0.14500
C1126       C  0.61091287  0.12231703  0.20497100     0.37900
N1127       N  0.57386813  0.11972573  0.22400730    -0.88700
H1128       H  0.56848204  0.12010336  0.16269677     0.19000
H1129       H  0.72587362  0.12692517  0.20979070     0.19000
N1130       N  0.72001974  0.12663801  0.14818700    -0.87700
H1131       H  0.54302129  0.11994440  0.21068075     0.36400
H1132       H  0.57457917  0.14590730  0.23740432     0.41500
H1133       H  0.72026430  0.09854517  0.13724559     0.41100
H1134       H  0.75081139  0.12903827  0.16143176     0.36000
C1135       C  0.92210112  0.12876120  0.66736749    -0.25800
C1136       C  0.88285799  0.14051761  0.64950912    -0.13800
C1137       C  0.84313277  0.14768311  0.66429392     0.36800
C1138       C  0.84494297  0.14776261  0.69636281    -0.25200
C1139       C  0.88533833  0.13982410  0.71435249    -0.14500
C1140       C  0.92376315  0.12804317  0.69964781     0.37900
N1141       N  0.96535329  0.11894514  0.71738264    -0.88700
H1142       H  0.95279327  0.12420065  0.65613525     0.19000
H1143       H  0.81479286  0.15558941  0.70733567     0.19000
N1144       N  0.80112904  0.15748763  0.64728349    -0.87700
H1145       H  0.49096061  0.11307234  0.70304330     0.36400
H1146       H  0.96046946  0.09197978  0.72929703     0.41500
H1147       H  0.80400728  0.15532827  0.62378523     0.41100
H1148       H  0.79354095  0.18769154  0.65188352     0.36000
C1149       C  0.46333040  0.23161381  0.90362630    -0.25800
C1150       C  0.47758277  0.22723761  0.87398004    -0.13800
C1151       C  0.52349827  0.23264139  0.86963830     0.36800
C1152       C  0.55477955  0.23904334  0.89491498    -0.25200
C1153       C  0.54149925  0.23841546  0.92500156    -0.14500
C1154       C  0.49492283  0.23675524  0.92926870     0.37900
N1155       N  0.48007345  0.23843330  0.95956595    -0.88700
H1156       H  0.42788079  0.22777535  0.90711075     0.19000
H1157       H  0.59025794  0.24083922  0.89097387     0.19000
N1158       N  0.53880521  0.22991705  0.83963189    -0.87700
H1159       H  0.44487372  0.23634666  0.95879340     0.36400
H1160       H  0.48880641  0.26702690  0.96847045     0.41500
H1161       H  0.56250352  0.20651259  0.83973933     0.41100
H1162       H  0.55515667  0.25710845  0.83496870     0.36000
C1163       C  0.70377500  0.15902369  0.87884914    -0.25800
C1164       C  0.71644273  0.18471656  0.90340444    -0.13800
C1165       C  0.74621655  0.21744302  0.89917522     0.36800
C1166       C  0.76678915  0.22076674  0.87168136    -0.25200
C1167       C  0.75866177  0.19177592  0.84859684    -0.14500
C1168       C  0.72473480  0.16225920  0.85146876     0.37900
N1169       N  0.71285913  0.13448113  0.82710768    -0.88700
H1170       H  0.67906132  0.13525236  0.88136556     0.19000
H1171       H  0.79224615  0.24398694  0.86949193     0.19000
N1172       N  0.75604013  0.24678260  0.92299344    -0.87700
H1173       H  0.67833212  0.13760288  0.82081134     0.36400
H1174       H  0.71833519  0.10499201  0.83546560     0.41500
H1175       H  0.72608570  0.26222716  0.92608987     0.41100
H1176       H  0.77896679  0.26857745  0.91630680     0.36000
C1177       C  0.84879387  0.37761378  0.87649685    -0.25800
C1178       C  0.88635075  0.39415246  0.89364214    -0.13800
C1179       C  0.92575460  0.40287387  0.87897518     0.36800
C1180       C  0.92534667  0.39859341  0.84712744    -0.25200
C1181       C  0.88612140  0.38640309  0.82945419    -0.14500
C1182       C  0.84824865  0.37348183  0.84444924     0.37900
N1183       N  0.80806847  0.35978227  0.82700175    -0.88700
H1184       H  0.81837421  0.37164534  0.88777972     0.19000
H1185       H  0.95493080  0.40743570  0.83579581     0.19000
N1186       N  0.96516517  0.41853104  0.89631618    -0.87700
H1187       H  0.78255704  0.35360303  0.84137199     0.36400
H1188       H  0.81569179  0.33213244  0.81703013     0.41500
H1189       H  0.95777907  0.44766591  0.90373742     0.41100
H1190       H  0.99180289  0.42195225  0.88238552     0.36000
C1191       C  0.82421933  0.03356192  0.91933170    -0.25800
C1192       C  0.85464571  0.04058197  0.94508149    -0.13800
C1193       C  0.88106702  0.07612677  0.94514383     0.36800
C1194       C  0.88820962  0.09468460  0.91698419    -0.25200
C1195       C  0.86535013  0.08097399  0.88949387    -0.14500
C1196       C  0.83030885  0.05211635  0.89134600     0.37900
N1197       N  0.80210168  0.03908838  0.86517990    -0.88700
H1198       H  0.79958607  0.00927875  0.91983155     0.19000
H1199       H  0.91073855  0.12057655  0.91663755     0.19000
N1200       N  0.89682778  0.09517710  0.97339546    -0.87700
H1201       H  0.82256420  0.02805752  0.84883668     0.36400
H1202       H  0.78347088  0.06385569  0.85622977     0.41500
H1203       H  0.86850302  0.10335786  0.98455859     0.41100
H1204       H  0.91428758  0.12199351  0.96925549     0.36000
C1205       C  0.55859664  0.35961128  0.34083462    -0.25800
C1206       C  0.59310032  0.37893955  0.32640684    -0.13800
C1207       C  0.62723009  0.40029719  0.34440880     0.36800
C1208       C  0.62906317  0.39690342  0.37643128    -0.25200
C1209       C  0.59779488  0.37282608  0.39056468    -0.14500
C1210       C  0.55988944  0.35733254  0.37270152     0.37900
N1211       N  0.52461336  0.33552522  0.38628190    -0.88700
H1212       H  0.53177437  0.34407419  0.32723174     0.19000
H1213       H  0.65795583  0.40916861  0.39007914     0.19000
N1214       N  0.66225183  0.42302482  0.33124020    -0.87700
H1215       H  0.49427836  0.35055026  0.38003971     0.36400
H1216       H  0.52907677  0.33711271  0.41011758     0.41500
H1217       H  0.65772244  0.42369550  0.30744840     0.41100
H1218       H  0.69293083  0.40833466  0.33709890     0.36000
C1219       C  0.59913720  0.44416321  0.09944791    -0.25800
C1220       C  0.63038998  0.47620578  0.09998173    -0.13800
C1221       C  0.66331181  0.47790810  0.12561193     0.36800
C1222       C  0.65556292  0.45648927  0.15221634    -0.25200
C1223       C  0.61770808  0.43141291  0.15363920    -0.14500
C1224       C  0.59112046  0.42267743  0.12623983     0.37900
N1225       N  0.55752148  0.39108499  0.12527695    -0.88700
H1226       H  0.58149679  0.43520576  0.07817122     0.19000
H1227       H  0.67920211  0.46021271  0.17218611     0.19000
N1228       N  0.70467858  0.00243895  0.12614248    -0.87700
H1229       H  0.54396355  0.38623139  0.10284192     0.36400
H1230       H  0.53079241  0.40134901  0.13721675     0.41500
H1231       H  0.70756222  0.01855007  0.10602428     0.41100
H1232       H  0.70320620  0.52339024  0.14372143     0.36000
C1233       C  0.93813687  0.27352620  0.14743757    -0.25800
C1234       C  0.95115057  0.28176172  0.11793113    -0.13800
C1235       C  0.99726173  0.28699110  0.11372908     0.36800
C1236       C  0.02878691  0.28821661  0.13960810    -0.25200
C1237       C  0.01453314  0.28560134  0.16936888    -0.14500
C1238       C  0.96913425  0.27593745  0.17313252     0.37900
N1239       N  0.95326176  0.27011451  0.20279419    -0.88700
H1240       H  0.90272248  0.26902036  0.15081848     0.19000
H1241       H  0.06374194  0.29561041  0.13666317     0.19000
N1242       N  0.01116220  0.29527962  0.08375036    -0.87700
H1243       H  0.95766710  0.29699147  0.21519763     0.36400
H1244       H  0.97277686  0.24744156  0.21413957     0.41500
H1245       H  0.00452089  0.26929094  0.07056886     0.41100
H1246       H  0.04606364  0.30008598  0.08473293     0.36000
C1247       C  0.75511294  0.28598029  0.15435532    -0.25800
C1248       C  0.77576572  0.32192976  0.14519777    -0.13800
C1249       C  0.78000360  0.35501453  0.16541171     0.36800
C1250       C  0.75837645  0.35334770  0.19258622    -0.25200
C1251       C  0.73234746  0.31938573  0.19974401    -0.14500
C1252       C  0.73350124  0.28437459  0.18150003     0.37900
N1253       N  0.71063407  0.24795143  0.18944256    -0.88700
H1254       H  0.75363686  0.25960465  0.13964771     0.19000
H1255       H  0.75883258  0.38007648  0.20688286     0.19000
N1256       N  0.80535208  0.39043139  0.15799474    -0.87700
H1257       H  0.73426608  0.22442135  0.19136332     0.36400
H1258       H  0.68647696  0.24088619  0.17156017     0.41500
H1259       H  0.83909130  0.38166655  0.15751849     0.41100
H1260       H  0.80463752  0.41223262  0.17516740     0.36000
O1261       O  0.75419726  0.81018362  0.03778908    -0.57300
C1262       C  0.86023525  0.89863511  0.02415263     0.75400
O1263       O  0.79702752  0.85700469  0.09969326    -0.58400
C1264       C  0.76074363  0.77445216  0.02855178     0.75300
C1265       C  0.91426999  0.79602407  0.09565351     0.77700
Cd1266     Cd  0.83505645  0.82423426  0.05869367     1.37500
O1267       O  0.86332825  0.86309136  0.01345825    -0.57300
O1268       O  0.88915928  0.82478927  0.10227876    -0.56100
C1269       C  0.79181496  0.82375337  0.11388579     0.77700
O1270       O  0.90611849  0.78048129  0.06925215    -0.58400
O1271       O  0.84735755  0.89990662  0.05092177    -0.56900
O1272       O  0.80179958  0.76311645  0.03023370    -0.56900
O1273       O  0.80371616  0.79166393  0.10118547    -0.56100
O1274       O  0.58481488  0.79205163  0.19988786    -0.57300
C1275       C  0.69473445  0.82505827  0.21909634     0.75400
O1276       O  0.64603827  0.90419561  0.20226075    -0.58400
C1277       C  0.54406946  0.80325646  0.19547499     0.75300
C1278       C  0.59778979  0.87087272  0.29383708     0.77700
Cd1279     Cd  0.60895576  0.85198091  0.23074313     1.37500
O1280       O  0.66328663  0.79937214  0.22143400    -0.57300
O1281       O  0.60421785  0.83502213  0.28491582    -0.56100
C1282       C  0.61326094  0.90941146  0.18241811     0.77700
O1283       O  0.59442864  0.89821478  0.27347311    -0.58400
O1284       O  0.68902541  0.85997677  0.23000314    -0.56900
O1285       O  0.53227568  0.83315760  0.21104557    -0.60100
O1286       O  0.57594254  0.89391717  0.18827328    -0.56100
C1287       C  0.86080680  0.50582582  0.96829745     0.30600
C1288       C  0.86480702  0.93734373  0.00479099     0.30600
C1289       C  0.82046213  0.99828071  0.98663903    -0.05600
C1290       C  0.86724828  0.96528478  0.95250954    -0.06400
C1291       C  0.90136235  0.00437140  0.99307769    -0.06300
C1292       C  0.82190050  0.96372563  0.00487285    -0.05600
C1293       C  0.86846376  0.93019778  0.97020754    -0.06400
C1294       C  0.90334829  0.96975465  0.01232125    -0.06300
C1295       C  0.78356823  0.96441836  0.02079140    -0.31700
N1296       N  0.75962438  0.99854655  0.01277272     0.14800
C1297       C  0.78158314  0.51931295  0.99187459    -0.31700
H1298       H  0.77152152  0.54825004  0.98183675     0.16800
C1299       C  0.87608974  0.89838133  0.95035758    -0.30700
N1300       N  0.88024866  0.91429657  0.92199193     0.13500
C1301       C  0.87520134  0.95479874  0.92334620    -0.30700
C1302       C  0.94637627  0.97080243  0.02778289    -0.31000
N1303       N  0.96953743  0.00427418  0.01854586     0.14000
H1304       H  0.96037807  0.94748650  0.04314751     0.16700
C1305       C  0.94289923  0.52319073  0.99609633    -0.31000
H1306       H  0.95527976  0.54641096  0.98157795     0.16700
H1307       H  0.87807291  0.97515200  0.90418246     0.16700
H1308       H  0.77468699  0.94249607  0.03768387     0.16700
H1309       H  0.87952229  0.86653136  0.95608542     0.16700
O1310       O  0.62743906  0.65394171  0.03220205    -0.57300
C1311       C  0.72288299  0.74720724  0.01656080     0.75400
O1312       O  0.65546933  0.66825038  0.93369089    -0.58400
C1313       C  0.62773042  0.61854798  0.02095923     0.75300
C1314       C  0.57736363  0.73073265  0.95007734     0.77700
Cd1315     Cd  0.65241691  0.69299345  0.98642202     1.37500
O1316       O  0.73040780  0.71129973  0.00834751    -0.57300
O1317       O  0.57028917  0.71324824  0.97505829    -0.56100
C1318       C  0.69629491  0.67863532  0.93249370     0.77700
O1319       O  0.61822537  0.73698558  0.94582536    -0.58400
O1320       O  0.68155779  0.75788120  0.01387306    -0.56900
O1321       O  0.63781359  0.61730477  0.99351137    -0.56900
O1322       O  0.71820783  0.68727113  0.95753650    -0.56100
O1323       O  0.90407656  0.71895356  0.84673673    -0.57300
C1324       C  0.79474739  0.68482089  0.82804170     0.75400
O1325       O  0.90603257  0.62328363  0.76774118    -0.58400
C1326       C  0.44556487  0.70978852  0.84941818     0.75300
C1327       C  0.87485878  0.60097611  0.86032061     0.77700
Cd1328     Cd  0.88057435  0.66070852  0.81348532     1.37500
O1329       O  0.82457966  0.71167761  0.82413588    -0.57300
O1330       O  0.91062212  0.62130934  0.85826633    -0.56100
C1331       C  0.88685794  0.64709795  0.74796354     0.77700
O1332       O  0.84671759  0.60161518  0.83709904    -0.58400
O1333       O  0.80184946  0.64951235  0.81837174    -0.56900
O1334       O  0.95783848  0.68214880  0.83185296    -0.56900
O1335       O  0.86772533  0.67771969  0.75841399    -0.56100
C1336       C  0.62467276  0.51137497  0.07673972     0.30600
C1337       C  0.62278597  0.57988209  0.04027337     0.30600
C1338       C  0.58155712  0.51645260  0.05483211    -0.05600
C1339       C  0.62524506  0.55229223  0.09295255    -0.06400
C1340       C  0.66213049  0.51501385  0.05485341    -0.06300
C1341       C  0.58019200  0.55100819  0.03558944    -0.05600
C1342       C  0.62628662  0.58721827  0.07526800    -0.06400
C1343       C  0.66158683  0.54978073  0.03680879    -0.06300
C1344       C  0.53771759  0.54969373  0.01923901    -0.31700
N1345       N  0.51415637  0.51640526  0.02845327     0.14800
C1346       C  0.54007411  0.49727445  0.05072660    -0.31700
H1347       H  0.52827351  0.97263500  0.06410813     0.16800
C1348       C  0.63083430  0.61943386  0.09594118    -0.30700
N1349       N  0.62998626  0.60402764  0.12476354     0.13500
C1350       C  0.62504112  0.56353806  0.12284647    -0.30700
C1351       C  0.69768682  0.54704832  0.01903861    -0.31000
N1352       N  0.71974985  0.51158123  0.02572366     0.14000
H1353       H  0.70711808  0.56926941  0.00253508     0.16700
C1354       C  0.69851823  0.99183101  0.04747249    -0.31000
H1355       H  0.70823388  0.96278590  0.05748215     0.16700
H1356       H  0.62300122  0.54368633  0.14238734     0.16700
H1357       H  0.52474936  0.57203116  0.00267139     0.16700
H1358       H  0.63491862  0.65124646  0.09067493     0.16700
O1359       O  0.01709762  0.55594956  0.49219599    -0.57300
C1360       C  0.90626153  0.64738472  0.51772621     0.75400
O1361       O  0.93237495  0.57779522  0.42587026    -0.58400
C1362       C  0.01004388  0.52434597  0.50755696     0.75300
C1363       C  0.85892763  0.53433428  0.44835992     0.77700
Cd1364     Cd  0.93462923  0.57685154  0.48064313     1.37500
O1365       O  0.91076645  0.61175555  0.52870891    -0.57300
O1366       O  0.85195873  0.56063312  0.46844100    -0.56100
C1367       C  0.46583515  0.60053488  0.42323383     0.77700
O1368       O  0.89936514  0.52289514  0.44779913    -0.58400
O1369       O  0.91239842  0.65027144  0.48958846    -0.56900
O1370       O  0.96898198  0.51795600  0.51225458    -0.56900
O1371       O  0.48340338  0.61688269  0.44755231    -0.56100
O1372       O  0.69288224  0.53018291  0.33908101    -0.57300
C1373       C  0.57844497  0.60131103  0.32664997     0.75400
O1374       O  0.68988932  0.65933092  0.34277189    -0.58400
C1375       C  0.73366030  0.54136284  0.34461538     0.75300
C1376       C  0.66488869  0.61148637  0.25108195     0.77700
Cd1377     Cd  0.66950017  0.59572872  0.31574350     1.37500
O1378       O  0.59621453  0.56648397  0.32386156    -0.57300
O1379       O  0.64552318  0.58140196  0.26258803    -0.56100
C1380       C  0.67624328  0.64678763  0.36796356     0.77700
O1381       O  0.69103041  0.63254705  0.26916332    -0.58400
O1382       O  0.60046998  0.63182539  0.31848220    -0.56900
O1383       O  0.74629817  0.57252418  0.33049090    -0.56900
O1384       O  0.66303840  0.61043471  0.36877527    -0.56100
C1385       C  0.90549129  0.75296918  0.57457085     0.30600
C1386       C  0.90126845  0.68514079  0.53772295     0.30600
C1387       C  0.94411950  0.74781448  0.55379917    -0.05600
C1388       C  0.90262820  0.71183410  0.59046191    -0.06400
C1389       C  0.86314718  0.75013861  0.55151574    -0.06300
C1390       C  0.94232061  0.71346573  0.53556917    -0.05600
C1391       C  0.90141995  0.67705406  0.57263559    -0.06400
C1392       C  0.86083080  0.71591943  0.53214044    -0.06300
C1393       C  0.97964359  0.71475514  0.51864170    -0.31700
N1394       N  0.00361152  0.74904777  0.52598566     0.14800
C1395       C  0.98207917  0.76949505  0.54743990    -0.31700
H1396       H  0.99294700  0.79790744  0.55786578     0.16800
C1397       C  0.89295027  0.64496377  0.59242755    -0.30700
N1398       N  0.88850420  0.66048112  0.62081521     0.13500
C1399       C  0.89313889  0.70101511  0.61934476    -0.30700
C1400       C  0.81865869  0.71817656  0.51561096    -0.31000
N1401       N  0.79598370  0.75178892  0.52467083     0.14000
H1402       H  0.80524892  0.69619917  0.49902474     0.16700
C1403       C  0.82225785  0.77032041  0.54702349    -0.31000
H1404       H  0.81045595  0.79505103  0.56008220     0.16700
H1405       H  0.88898724  0.72125247  0.63824665     0.16700
H1406       H  0.98854786  0.69240983  0.50224322     0.16700
H1407       H  0.88865457  0.61329510  0.58650374     0.16700
O1408       O  0.53861917  0.96476824  0.53414835    -0.57300
C1409       C  0.63902552  0.86827429  0.51931133     0.75400
O1410       O  0.68262564  0.98885905  0.57276629    -0.58400
C1411       C  0.54728899  0.99668742  0.51967432     0.75300
C1412       C  0.56945154  0.93930210  0.60464965     0.77700
Cd1413     Cd  0.61724754  0.94389808  0.55150994     1.37500
O1414       O  0.66076615  0.90066579  0.51450840    -0.57300
O1415       O  0.58731584  0.97187220  0.59619610    -0.56100
C1416       C  0.69206901  0.96420178  0.59478521     0.77700
O1417       O  0.57231665  0.90866235  0.58748378    -0.58400
O1418       O  0.60920442  0.87190545  0.53799340    -0.56900
O1419       O  0.58906382  0.00328972  0.51685459    -0.56900
O1420       O  0.67220644  0.93033317  0.59319752    -0.56100
O1421       O  0.93794421  0.95889646  0.71340784    -0.57300
C1422       C  0.81517924  0.95468175  0.69993007     0.75400
O1423       O  0.91599406  0.84826839  0.70499040    -0.58400
C1424       C  0.96762293  0.93209116  0.70980208     0.75300
C1425       C  0.88428581  0.89292956  0.79578208     0.77700
Cd1426     Cd  0.88534020  0.90762561  0.73035827     1.37500
O1427       O  0.85386835  0.97032676  0.70628924    -0.57300
O1428       O  0.90459588  0.92257250  0.78458404    -0.56100
C1429       C  0.88808947  0.85039677  0.68160437     0.77700
O1430       O  0.86252640  0.86991893  0.77671825    -0.58400
O1431       O  0.80723884  0.92123320  0.71294517    -0.56900
O1432       O  0.96272092  0.89811553  0.72269292    -0.56900
O1433       O  0.85404542  0.87259109  0.68403710    -0.56100
C1434       C  0.64362436  0.76077520  0.46498456     0.30600
C1435       C  0.64369901  0.82878977  0.50136613     0.30600
C1436       C  0.68636207  0.76823855  0.48592769    -0.05600
C1437       C  0.63558342  0.80164371  0.44884200    -0.06400
C1438       C  0.60594829  0.76186030  0.48748406    -0.06300
C1439       C  0.68786104  0.80242333  0.50462029    -0.05600
C1440       C  0.63602940  0.83620286  0.46667492    -0.06400
C1441       C  0.60683258  0.79628120  0.50635294    -0.06300
C1442       C  0.72982509  0.79978964  0.52164646    -0.31700
N1443       N  0.75221889  0.76543179  0.51335327     0.14800
C1444       C  0.72550556  0.74631035  0.49158972    -0.31700
H1445       H  0.73354337  0.71815516  0.48073743     0.16800
C1446       C  0.62225149  0.86808385  0.44718395    -0.30700
N1447       N  0.61287126  0.85270071  0.41864051     0.13500
C1448       C  0.62047425  0.81234715  0.41968406    -0.30700
C1449       C  0.56905103  0.79435325  0.52269617    -0.31000
N1450       N  0.54468193  0.76092158  0.51409808     0.14000
H1451       H  0.55898615  0.81615854  0.53901950     0.16700
C1452       C  0.56594381  0.74153963  0.49201508    -0.31000
H1453       H  0.55212913  0.71592888  0.47922877     0.16700
H1454       H  0.61433761  0.79202360  0.40046182     0.16700
H1455       H  0.74254879  0.82117691  0.53887990     0.16700
H1456       H  0.61739466  0.89938370  0.45344908     0.16700
C1457       C  0.73673871  0.96182840  0.67743471    -0.25800
C1458       C  0.78242269  0.97099268  0.67567349    -0.13800
C1459       C  0.79689732  0.98606272  0.64775934     0.36800
C1460       C  0.76612548  0.98715585  0.62137952    -0.25200
C1461       C  0.72153281  0.97373436  0.62275126    -0.14500
C1462       C  0.70613028  0.96348645  0.65143417     0.37900
N1463       N  0.65951395  0.95306375  0.65373241    -0.88700
H1464       H  0.72541035  0.95083949  0.69883202     0.19000
H1465       H  0.77775692  0.99555839  0.59946506     0.19000
N1466       N  0.84351217  0.99658960  0.64560566    -0.87700
H1467       H  0.64064937  0.97933396  0.64875520     0.36400
H1468       H  0.65384408  0.94484291  0.67613366     0.41500
H1469       H  0.85043730  0.02212856  0.65927737     0.41100
H1470       H  0.84898055  0.00529326  0.62328593     0.36000
C1471       C  0.01563293  0.90017406  0.67411797    -0.25800
C1472       C  0.00144373  0.93638073  0.68720953    -0.13800
C1473       C  0.01278058  0.97388876  0.67400085     0.36800
C1474       C  0.03613806  0.97405278  0.64760754    -0.25200
C1475       C  0.04708722  0.93761263  0.63336967    -0.14500
C1476       C  0.03728390  0.90039955  0.64714686     0.37900
N1477       N  0.54840880  0.86262444  0.63363507    -0.88700
H1478       H  0.00716128  0.87096015  0.68357560     0.19000
H1479       H  0.04425150  0.00299026  0.63755217     0.19000
N1480       N  0.00092864  0.01211451  0.68650236    -0.87700
H1481       H  0.51854757  0.84607948  0.62903002     0.36400
H1482       H  0.56929102  0.84632253  0.64963189     0.41500
H1483       H  0.01278807  0.01276548  0.70960057     0.41100
H1484       H  0.96584814  0.01516423  0.68455167     0.36000
C1485       C  0.88164817  0.82022851  0.59756070    -0.25800
C1486       C  0.91156807  0.78729403  0.59841086    -0.13800
C1487       C  0.94204751  0.78310458  0.62522587     0.36800
C1488       C  0.93321794  0.80372424  0.65189771    -0.25200
C1489       C  0.89650001  0.83014436  0.65247101    -0.14500
C1490       C  0.87262412  0.84070417  0.62438361     0.37900
N1491       N  0.83970895  0.87251505  0.62275926    -0.88700
H1492       H  0.86540236  0.83059454  0.57614020     0.19000
H1493       H  0.95502836  0.79828701  0.67253299     0.19000
N1494       N  0.98095042  0.75700595  0.62704461    -0.87700
H1495       H  0.80889300  0.86042028  0.61374107     0.36400
H1496       H  0.84968919  0.89470923  0.60757901     0.41500
H1497       H  0.98567625  0.74295013  0.60640713     0.41100
H1498       H  0.97620774  0.73410536  0.64300616     0.36000
C1499       C  0.64714725  0.66027917  0.41866929    -0.25800
C1500       C  0.67266179  0.67328570  0.39472666    -0.13800
C1501       C  0.69267853  0.71180498  0.39634967     0.36800
C1502       C  0.68272680  0.73787147  0.41981010    -0.25200
C1503       C  0.65259530  0.72716823  0.44198010    -0.14500
C1504       C  0.63873375  0.68597325  0.44298547     0.37900
N1505       N  0.62222551  0.66737089  0.46945038    -0.88700
H1506       H  0.63429181  0.62947592  0.41891775     0.19000
H1507       H  0.69882136  0.76741977  0.42070970     0.19000
N1508       N  0.72311031  0.72445221  0.37428676    -0.87700
H1509       H  0.58798322  0.66062264  0.46474875     0.36400
H1510       H  0.62758637  0.68553189  0.48875400     0.41500
H1511       H  0.75165060  0.70587666  0.37719654     0.41100
H1512       H  0.73434992  0.75413939  0.37849445     0.36000
C1513       C  0.74723153  0.52830611  0.39980637    -0.25800
C1514       C  0.76270277  0.52446652  0.37054943    -0.13800
C1515       C  0.80840281  0.51536998  0.36792079     0.36800
C1516       C  0.83840867  0.51342492  0.39452140    -0.25200
C1517       C  0.82401230  0.52261568  0.42355041    -0.14500
C1518       C  0.77756101  0.52844086  0.42617753     0.37900
N1519       N  0.76131309  0.53668514  0.45531565    -0.88700
H1520       H  0.71210151  0.53563123  0.40202955     0.19000
H1521       H  0.87394595  0.50851701  0.39214653     0.19000
N1522       N  0.82449311  0.51056802  0.33817083    -0.87700
H1523       H  0.73706336  0.51472525  0.45945971     0.36400
H1524       H  0.74534259  0.56494864  0.45403209     0.41500
H1525       H  0.80851182  0.48509614  0.32816916     0.41100
H1526       H  0.85916707  0.50437327  0.34007778     0.36000
C1527       C  0.51197182  0.57221717  0.34887500    -0.25800
C1528       C  0.53795401  0.60651381  0.34342137    -0.13800
C1529       C  0.53263284  0.64202595  0.36082093     0.36800
C1530       C  0.50692319  0.64045718  0.38614910    -0.25200
C1531       C  0.48502217  0.60459913  0.39354964    -0.14500
C1532       C  0.48552153  0.57092709  0.37373146     0.37900
N1533       N  0.46240256  0.53405169  0.38017947    -0.88700
H1534       H  0.51520383  0.54500450  0.33545770     0.19000
H1535       H  0.50568106  0.66677462  0.40076959     0.19000
N1536       N  0.55562308  0.67892558  0.35423025    -0.87700
H1537       H  0.48624905  0.51076684  0.38304471     0.36400
H1538       H  0.44029325  0.52711182  0.36113701     0.41500
H1539       H  0.57630472  0.68717271  0.37361352     0.41100
H1540       H  0.53134523  0.70166002  0.35004840     0.36000
C1541       C  0.60256865  0.62356159  0.17297111    -0.25800
C1542       C  0.63821073  0.62318338  0.15398689    -0.13800
C1543       C  0.68299359  0.62640367  0.16732585     0.36800
C1544       C  0.69133374  0.62640375  0.19946706    -0.25200
C1545       C  0.65570563  0.62152117  0.21822650    -0.14500
C1546       C  0.61079269  0.62231544  0.20493888     0.37900
N1547       N  0.57374983  0.61972498  0.22397728    -0.88700
H1548       H  0.56833437  0.62033473  0.16267062     0.19000
H1549       H  0.72576916  0.62651168  0.20974443     0.19000
N1550       N  0.71989539  0.62617575  0.14813961    -0.87700
H1551       H  0.54289953  0.62002532  0.21065752     0.36400
H1552       H  0.57452001  0.64586207  0.23742553     0.41500
H1553       H  0.71992726  0.59808809  0.13717876     0.41100
H1554       H  0.75070783  0.62837655  0.16138452     0.36000
C1555       C  0.92223936  0.62883588  0.66739466    -0.25800
C1556       C  0.88300623  0.64064429  0.64954661    -0.13800
C1557       C  0.84328324  0.64782509  0.66432720     0.36800
C1558       C  0.84507698  0.64783102  0.69638857    -0.25200
C1559       C  0.88546125  0.63984875  0.71437066    -0.14500
C1560       C  0.92389181  0.62807933  0.69967203     0.37900
N1561       N  0.96547545  0.61896740  0.71741126    -0.88700
H1562       H  0.95293065  0.62427269  0.65616206     0.19000
H1563       H  0.81492935  0.65566113  0.70736372     0.19000
N1564       N  0.80130996  0.65775259  0.64732500    -0.87700
H1565       H  0.49108435  0.61312535  0.70306369     0.36400
H1566       H  0.96058720  0.59199316  0.72931382     0.41500
H1567       H  0.80418777  0.65565343  0.62382384     0.41100
H1568       H  0.79379539  0.68795825  0.65197499     0.36000
C1569       C  0.46315341  0.73136521  0.90361615    -0.25800
C1570       C  0.47729655  0.72711455  0.87392994    -0.13800
C1571       C  0.52317352  0.73254741  0.86951020     0.36800
C1572       C  0.55454352  0.73883303  0.89474139    -0.25200
C1573       C  0.54139555  0.73805152  0.92485887    -0.14500
C1574       C  0.49484464  0.73639150  0.92921820     0.37900
N1575       N  0.48012259  0.73792896  0.95955526    -0.88700
H1576       H  0.42772543  0.72749651  0.90715529     0.19000
H1577       H  0.58999129  0.74065515  0.89072257     0.19000
N1578       N  0.53835820  0.72992508  0.83946351    -0.87700
H1579       H  0.44492515  0.73586195  0.95884232     0.36400
H1580       H  0.48891435  0.76647449  0.96852505     0.41500
H1581       H  0.56202134  0.70650179  0.83947711     0.41100
H1582       H  0.55471799  0.75712188  0.83482723     0.36000
C1583       C  0.70375834  0.65843703  0.87858922    -0.25800
C1584       C  0.71637893  0.68403635  0.90320904    -0.13800
C1585       C  0.74599985  0.71689613  0.89904289     0.36800
C1586       C  0.76657932  0.72039240  0.87156583    -0.25200
C1587       C  0.75852472  0.69149171  0.84841042    -0.14500
C1588       C  0.72465682  0.66189875  0.85119865     0.37900
N1589       N  0.71277630  0.63428467  0.82673053    -0.88700
H1590       H  0.67911008  0.63459448  0.88104948     0.19000
H1591       H  0.79196728  0.74369016  0.86943395     0.19000
N1592       N  0.75562709  0.74621716  0.92290097    -0.87700
H1593       H  0.67823884  0.63740920  0.82047015     0.36400
H1594       H  0.71829819  0.60474284  0.83496098     0.41500
H1595       H  0.72557780  0.76150791  0.92599878     0.41100
H1596       H  0.77843399  0.76814274  0.91625092     0.36000
C1597       C  0.84913237  0.87811339  0.87658656    -0.25800
C1598       C  0.88686446  0.89446575  0.89364863    -0.13800
C1599       C  0.92621097  0.90306993  0.87888931     0.36800
C1600       C  0.92561984  0.89877141  0.84703752    -0.25200
C1601       C  0.88625257  0.88672566  0.82945563    -0.14500
C1602       C  0.84838172  0.87401148  0.84453463     0.37900
N1603       N  0.80801737  0.86056171  0.82717298    -0.88700
H1604       H  0.81875145  0.87228199  0.88794735     0.19000
H1605       H  0.95518279  0.90748198  0.83563344     0.19000
N1606       N  0.96575964  0.91861193  0.89614263    -0.87700
H1607       H  0.78253282  0.85456263  0.84160338     0.36400
H1608       H  0.81536505  0.83285544  0.81718163     0.41500
H1609       H  0.95850663  0.94775683  0.90361250     0.41100
H1610       H  0.99231350  0.92199066  0.88213906     0.36000
C1611       C  0.82380795  0.53351172  0.91917718    -0.25800
C1612       C  0.85420704  0.54049556  0.94494250    -0.13800
C1613       C  0.88070833  0.57599323  0.94500447     0.36800
C1614       C  0.88800919  0.59446386  0.91684461    -0.25200
C1615       C  0.86516901  0.58077181  0.88934488    -0.14500
C1616       C  0.83002240  0.55200892  0.89118437     0.37900
N1617       N  0.80181512  0.53902884  0.86500471    -0.88700
H1618       H  0.79910043  0.50929079  0.91967481     0.19000
H1619       H  0.91061343  0.62030389  0.91650988     0.19000
N1620       N  0.89635475  0.59511131  0.97325392    -0.87700
H1621       H  0.82227108  0.52791358  0.84868801     0.36400
H1622       H  0.78329020  0.56384018  0.85602554     0.41500
H1623       H  0.86797389  0.60340774  0.98431257     0.41100
H1624       H  0.91392109  0.62187066  0.96911151     0.36000
C1625       C  0.55961566  0.86023357  0.34073797    -0.25800
C1626       C  0.59431239  0.87952043  0.32648420    -0.13800
C1627       C  0.62843234  0.90067852  0.34464441     0.36800
C1628       C  0.62997176  0.89717807  0.37665096    -0.25200
C1629       C  0.59849256  0.87311819  0.39059940    -0.14500
C1630       C  0.56067589  0.85776785  0.37257567     0.37900
N1631       N  0.52526874  0.83588062  0.38595021    -0.88700
H1632       H  0.53283234  0.84481693  0.32701032     0.19000
H1633       H  0.65881197  0.90930405  0.39043202     0.19000
N1634       N  0.66374213  0.92325153  0.33166977    -0.87700
H1635       H  0.49497125  0.85092698  0.37964065     0.36400
H1636       H  0.52953108  0.83733787  0.40979642     0.41500
H1637       H  0.65944606  0.92397779  0.30787246     0.41100
H1638       H  0.69428506  0.90839476  0.33764075     0.36000
C1639       C  0.60026367  0.94396551  0.09935812    -0.25800
C1640       C  0.63119021  0.97626789  0.09993746    -0.13800
C1641       C  0.66431723  0.97801228  0.12546630     0.36800
C1642       C  0.65704144  0.95623520  0.15199729    -0.25200
C1643       C  0.61944177  0.93087164  0.15342937    -0.14500
C1644       C  0.59280706  0.92207594  0.12607100     0.37900
N1645       N  0.55977930  0.88999801  0.12506592    -0.88700
H1646       H  0.58242900  0.93513988  0.07811379     0.19000
H1647       H  0.68074266  0.95999248  0.17193233     0.19000
N1648       N  0.70395193  0.50194861  0.12630171    -0.87700
H1649       H  0.54625233  0.88509866  0.10262820     0.36400
H1650       H  0.53290475  0.89976262  0.13707119     0.41500
H1651       H  0.70713709  0.51781378  0.10610585     0.41100
H1652       H  0.70382431  0.02368440  0.14369589     0.36000
C1653       C  0.93659125  0.77549177  0.14871769    -0.25800
C1654       C  0.94976905  0.78234609  0.11906026    -0.13800
C1655       C  0.99598776  0.78647793  0.11478039     0.36800
C1656       C  0.02757254  0.78788497  0.14062085    -0.25200
C1657       C  0.01335260  0.78650938  0.17042794    -0.14500
C1658       C  0.96770621  0.77801683  0.17436398     0.37900
N1659       N  0.95176424  0.77337963  0.20411495    -0.88700
H1660       H  0.90108556  0.77184280  0.15217548     0.19000
H1661       H  0.06269410  0.79439045  0.13753108     0.19000
N1662       N  0.01005075  0.79346922  0.08466959    -0.87700
H1663       H  0.95689151  0.80049810  0.21612956     0.36400
H1664       H  0.97070404  0.75059187  0.21576839     0.41500
H1665       H  0.00281467  0.76718659  0.07195406     0.41100
H1666       H  0.04505819  0.79760417  0.08557124     0.36000
C1667       C  0.75188806  0.78607252  0.15257137    -0.25800
C1668       C  0.77370522  0.82172868  0.14405640    -0.13800
C1669       C  0.77929514  0.85403982  0.16490166     0.36800
C1670       C  0.75828389  0.85188753  0.19230483    -0.25200
C1671       C  0.73147311  0.81825126  0.19905870    -0.14500
C1672       C  0.73084981  0.78399609  0.17990650     0.37900
N1673       N  0.70675535  0.74794049  0.18714744    -0.88700
H1674       H  0.74922003  0.76029074  0.13728251     0.19000
H1675       H  0.75993549  0.87805604  0.20720551     0.19000
N1676       N  0.80549337  0.88913897  0.15795193    -0.87700
H1677       H  0.72943684  0.72366073  0.18819709     0.36400
H1678       H  0.68196548  0.74237128  0.16932958     0.41500
H1679       H  0.83892488  0.87969371  0.15701596     0.41100
H1680       H  0.80570849  0.91039275  0.17556688     0.36000
loop_ 
_geom_bond_atom_site_label_1 
_geom_bond_atom_site_label_2 
_geom_bond_distance 
_geom_bond_site_symmetry_2 
_ccdc_geom_bond_type 
O1            C4   1.268       .  A
O1           Cd6   2.542       .  S
C2           O11   1.267       .  A
C2            O7   1.270       .  A
C2           C28   1.541       .  S
O3            C9   1.274       .  A
O3           Cd6   2.460       .  S
C4           O12   1.273       .  A
C4           C51   1.500       .  S
C5           O10   1.274       .  A
C5            O8   1.258       .  A
C5          C394   1.479       .  S
Cd6          O13   2.406       .  S
Cd6          O12   2.530       .  S
Cd6          O11   2.547       .  S
Cd6           O7   2.555       .  S
Cd6          O10   2.570       .  S
Cd6           O8   2.392       .  S
C9           O13   1.263       .  A
C9          C408   1.473       .  S
O14          C17   1.266       .  A
O14         Cd19   2.470       .  S
C15          O24   1.266       .  A
C15          O20   1.269       .  A
C15         C411   1.476       .  S
O16          C22   1.263       .  A
O16         Cd19   2.433       .  S
C17          O25   1.269       .  A
C17        C1237   1.476       .  S
C18          O23   1.264       .  A
C18          O21   1.267       .  A
C18         C366   1.475       .  S
Cd19         O26   2.455       .  S
Cd19         O25   2.446       .  S
Cd19         O24   2.397       .  S
Cd19         O20   2.434       .  S
Cd19         O23   2.488       .  S
Cd19         O21   2.459       .  S
C22          O26   1.265       .  A
C22         C383   1.478       .  S
C27         C352   1.533       .  S
C27         C449   1.526   1_545  S
C27         C451   1.542       .  S
C27         C450   1.531   1_545  S
C28          C32   1.545       .  S
C28          C34   1.579       .  S
C28          C33   1.551   1_554  S
C29         C447   1.526       .  S
C29          C32   1.388   1_556  A
C29         C457   1.377       .  A
C30         C447   1.531       .  S
C30          C41   1.367       .  A
C30          C33   1.389       .  A
C31         C447   1.543       .  S
C31          C34   1.414   1_556  A
C31         C465   1.385       .  A
C32          C35   1.385       .  A
C33          C39   1.398       .  A
C34          C42   1.396       .  A
C35          N36   1.361       .  A
C35          H48   1.081       .  S
N36         C457   1.360   1_554  A
N36         N512   1.417       .  S
C37         C449   1.377   1_545  A
C37         N456   1.359   1_546  A
C37          H38   1.081       .  S
C39          N40   1.364       .  A
C39          H49   1.081       .  S
N40          C41   1.346       .  A
N40         C338   1.437       .  S
C41          H47   1.082       .  S
C42          N43   1.375       .  A
C42          H44   1.081       .  S
N43         C465   1.349   1_554  A
N43        N1345   1.426       .  S
C45         C451   1.384       .  A
C45         N463   1.349   1_556  A
C45          H46   1.077       .  S
O50          C53   1.269       .  A
O50         Cd55   2.544   1_554  S
C51          O60   1.274       .  A
C51          O56   1.265       .  A
O52          C58   1.265       .  A
O52         Cd55   2.467       .  S
C53          O61   1.266   1_554  A
C53          C77   1.541       .  S
C54          O59   1.260       .  A
C54          O57   1.269       .  A
C54         C313   1.493       .  S
Cd55         O62   2.426       .  S
Cd55         O61   2.554       .  S
Cd55         O60   2.573   1_556  S
Cd55         O56   2.507   1_556  S
Cd55         O59   2.451       .  S
Cd55         O57   2.540       .  S
C58          O62   1.263       .  A
C58         C324   1.471       .  S
O63         C906   1.266       .  A
O63         Cd68   2.481       .  S
C64          O73   1.265       .  A
C64          O69   1.272       .  A
C64         C327   1.473       .  S
O65          C71   1.268       .  A
O65         Cd68   2.533       .  S
C66         O903   1.266       .  A
C66         O914   1.270       .  A
C66         C310   1.486       .  S
C67          O72   1.264       .  A
C67          O70   1.264       .  A
C67         C355   1.484       .  S
Cd68         O75   2.480       .  S
Cd68         O74   2.474       .  S
Cd68         O73   2.395       .  S
Cd68         O69   2.442       .  S
Cd68         O72   2.454       .  S
Cd68         O70   2.458       .  S
C71          O75   1.266       .  A
C71         C299   1.493       .  S
O74         C906   1.270       .  A
C76          C78   1.546       .  S
C76          C80   1.533       .  S
C76          C79   1.527       .  S
C76         C800   1.540   1_545  S
C77          C81   1.582       .  S
C77          C83   1.541       .  S
C77          C82   1.551       .  S
C78          C86   1.383   1_545  A
C78          C81   1.413       .  A
C79          C90   1.366       .  A
C79          C82   1.387       .  A
C80          C83   1.389       .  A
C80         C514   1.380   1_545  A
C81          C84   1.400       .  A
C82          C88   1.399       .  A
C83          C91   1.382       .  A
C84          N85   1.377       .  A
C84          H97   1.081       .  S
N85          C86   1.349   1_545  A
N85        N1303   1.426   1_455  S
C86         H507   1.075       .  S
H87         C506   1.075       .  S
C88          N89   1.363       .  A
C88          H98   1.081       .  S
N89          C90   1.344       .  A
N89         C282   1.435       .  S
C90          H96   1.082       .  S
C91          N92   1.361       .  A
C91          H93   1.080       .  S
N92         C514   1.360   1_545  A
N92         N456   1.417   1_545  S
C94         C500   1.381       .  A
C94         N512   1.361       .  A
C94          H95   1.081       .  S
O99         C102   1.264       .  A
O99        Cd104   2.556       .  S
C100        O109   1.266       .  A
C100        O105   1.270       .  A
C100        C126   1.541       .  S
O101        C947   1.256       .  A
O101       Cd104   2.401       .  S
C102        O110   1.271       .  A
C102       C1411   1.499   1_545  S
C103        O108   1.262       .  A
C103        O106   1.269       .  A
C103        C257   1.492       .  S
Cd104       O110   2.546       .  S
Cd104       O109   2.551       .  S
Cd104       O105   2.561       .  S
Cd104       O108   2.470       .  S
Cd104       O106   2.526       .  S
Cd104       O951   2.505       .  S
C107        O111   1.270       .  A
C107        O941   1.256       .  A
C107        C271   1.471       .  S
O111       Cd944   2.505       .  S
O112        C115   1.270       .  A
O112       Cd117   2.462       .  S
C113        O122   1.265       .  A
C113        O118   1.275       .  A
C113        C268   1.473       .  S
O114        C120   1.276       .  A
O114       Cd117   2.463       .  S
C115        O123   1.269       .  A
C115        C254   1.478       .  S
C116        O121   1.271       .  A
C116        O119   1.269       .  A
C116        C285   1.481       .  S
Cd117       O124   2.403       .  S
Cd117       O123   2.445       .  S
Cd117       O122   2.386       .  S
Cd117       O118   2.431       .  S
Cd117       O121   2.500       .  S
Cd117       O119   2.430       .  S
C120        O124   1.261       .  A
C120        C240   1.478       .  S
C125        C127   1.534       .  S
C125        C129   1.551       .  S
C125        C128   1.527       .  S
C125        C226   1.545       .  S
C126        C130   1.543       .  S
C126        C132   1.577       .  S
C126        C131   1.554       .  S
C127        C135   1.381       .  A
C127        C130   1.388       .  A
C128        C139   1.367       .  A
C128        C131   1.390       .  A
C129        C143   1.386       .  A
C129        C132   1.414       .  A
C130        C133   1.386       .  A
C131        C137   1.401       .  A
C132        C140   1.397       .  A
C133        N134   1.360       .  A
C133        H146   1.081       .  S
N134        C135   1.364       .  A
N134       N1030   1.419       .  S
C135        H136   1.081       .  S
C137        N138   1.366       .  A
C137        H147   1.081       .  S
N138        C139   1.344       .  A
N138        C296   1.439       .  S
C139        H145   1.082       .  S
C140        N141   1.376       .  A
C140        H142   1.081       .  S
N141        C143   1.350       .  A
N141        N183   1.426       .  S
C143        H144   1.075       .  S
O148        C151   1.263       .  A
O148       Cd153   2.493       .  S
C149        O158   1.263       .  A
C149        O154   1.272       .  A
C149        C175   1.537       .  S
O150        C156   1.274       .  A
O150       Cd153   2.556       .  S
C151        O159   1.276       .  A
C151       C1362   1.499       .  S
C152        O157   1.270       .  A
C152        O155   1.264       .  A
C152       C1055   1.474       .  S
Cd153       O160   2.391       .  S
Cd153       O159   2.572       .  S
Cd153       O158   2.455       .  S
Cd153       O154   2.593       .  S
Cd153       O157   2.439       .  S
Cd153       O155   2.409       .  S
C156        O160   1.261       .  A
C156        C201   1.482       .  S
O161        C164   1.270       .  A
O161       Cd166   2.454       .  S
C162        O171   1.270       .  A
C162        O167   1.269       .  A
C162        C198   1.482       .  S
O163        C169   1.267       .  A
O163       Cd166   2.469       .  S
C164        O172   1.265       .  A
C164        C212   1.475       .  S
C165        O170   1.268       .  A
C165        O168   1.265       .  A
C165        C341   1.488       .  S
Cd166       O173   2.458       .  S
Cd166       O172   2.373       .  S
Cd166       O171   2.425       .  S
Cd166       O167   2.467       .  S
Cd166       O170   2.520       .  S
Cd166       O168   2.455       .  S
C169        O173   1.262       .  A
C169        C229   1.485       .  S
C174        C176   1.525       .  S
C174        C178   1.554       .  S
C174        C177   1.529       .  S
C174        C243   1.541       .  S
C175        C179   1.572       .  S
C175        C181   1.558       .  S
C175        C180   1.540       .  S
C176        C184   1.375       .  A
C176        C179   1.395       .  A
C177        C188   1.366       .  A
C177        C180   1.385       .  A
C178        C192   1.391       .  A
C178        C181   1.407       .  A
C179        C182   1.403       .  A
C180        C186   1.393       .  A
C181        C189   1.383       .  A
C182        N183   1.381       .  A
C182        H195   1.081       .  S
N183        C184   1.348       .  A
C184        H185   1.081       .  S
C186        N187   1.361       .  A
C186        H196   1.082       .  S
N187        C188   1.349       .  A
N187        C369   1.434       .  S
C188        H194   1.083       .  S
C189        N190   1.355       .  A
C189        H191   1.078       .  S
N190        C192   1.363       .  A
N190        N974   1.419       .  S
C192        H193   1.077       .  S
C197        C198   1.398       .  A
C197        C202   1.400       .  A
C197        H204   1.084       .  S
C198        C199   1.419       .  A
C199        C200   1.415       .  A
C199        N206   1.437       .  S
C200        C201   1.401       .  A
C200        H205   1.083       .  S
C201        C202   1.414       .  A
C202        N203   1.438       .  S
N203        H207   1.045       .  S
N203        H208   1.046       .  S
N206        H209   1.046       .  S
N206        H210   1.045       .  S
C211        C212   1.408       .  A
C211        C216   1.393       .  A
C211        H218   1.084       .  S
C212        C213   1.414       .  A
C213        C214   1.399       .  A
C213        N220   1.433       .  S
C214        C215   1.408       .  A
C214        H219   1.084       .  S
C215        C992   1.474       .  S
C215        C216   1.405       .  A
C216       N1057   1.433       .  S
N217       C1056   1.433       .  S
N217        H221   1.046       .  S
N217        H222   1.045       .  S
N220        H223   1.046       .  S
N220        H224   1.044       .  S
C225        C226   1.403       .  A
C225        C230   1.405       .  A
C225        H232   1.075       .  S
C226        C227   1.431       .  A
C227        C228   1.400       .  A
C227        N234   1.439       .  S
C228        C229   1.400       .  A
C228        H233   1.084       .  S
C229        C230   1.413       .  A
C230        N231   1.433       .  S
N231        H235   1.046       .  S
N231        H236   1.046       .  S
N234        H237   1.040       .  S
N234        H238   1.044       .  S
C239        C240   1.410       .  A
C239        C244   1.405       .  A
C239        H246   1.084       .  S
C240        C241   1.400       .  A
C241        C242   1.395       .  A
C241        N248   1.438       .  S
C242        C243   1.419       .  A
C242        H247   1.083       .  S
C243        C244   1.419       .  A
C244        N245   1.432       .  S
N245        H249   1.045       .  S
N245        H250   1.041       .  S
N248        H251   1.046       .  S
N248        H252   1.045       .  S
C253        C254   1.406       .  A
C253        C258   1.407       .  A
C253        H260   1.084       .  S
C254        C255   1.406       .  A
C255        C256   1.411       .  A
C255        N262   1.437       .  S
C256        C257   1.412       .  A
C256        H261   1.082       .  S
C257        C258   1.408       .  A
C258        N259   1.432       .  S
N259        H263   1.046       .  S
N259        H264   1.046       .  S
N262        H265   1.045   1_545  S
N262        H266   1.046       .  S
C267        C268   1.398       .  A
C267        C272   1.397   1_455  A
C267        H274   1.084       .  S
C268        C269   1.417       .  A
C269        C270   1.401       .  A
C269        N276   1.433       .  S
C270        C271   1.397   1_455  A
C270        H275   1.084       .  S
C271        C272   1.414       .  A
C272        N273   1.433       .  S
N273        H277   1.046       .  S
N273        H278   1.046       .  S
N276        H279   1.044       .  S
N276        H280   1.047       .  S
C281        C282   1.401       .  A
C281        C286   1.405       .  A
C281        H288   1.083       .  S
C282        C283   1.412       .  A
C283        C284   1.412       .  A
C283        N290   1.437       .  S
C284        C285   1.402       .  A
C284        H289   1.083       .  S
C285        C286   1.412       .  A
C286        N287   1.438       .  S
N287        H291   1.046       .  S
N287        H292   1.046       .  S
N290        H293   1.045       .  S
N290        H294   1.045       .  S
C295        C296   1.404       .  A
C295        C300   1.414       .  A
C295        H302   1.083       .  S
C296        C297   1.414       .  A
C297        C298   1.404       .  A
C297        N304   1.437       .  S
C298        C299   1.405       .  A
C298        H303   1.084       .  S
C299        C300   1.414       .  A
C300        N301   1.436       .  S
N301        H306   1.045       .  S
N301       H1145   1.046       .  S
N304        H307   1.045       .  S
N304        H308   1.046       .  S
H305       N1141   1.046       .  S
C309        C310   1.410       .  A
C309        C314   1.415       .  A
C309        H316   1.084       .  S
C310        C311   1.404   1_655  A
C311        C312   1.403       .  A
C311        N318   1.432       .  S
C312        C313   1.409       .  A
C312        H317   1.084       .  S
C313        C314   1.413   1_455  A
C314        N315   1.437       .  S
N315        H319   1.046       .  S
N315        H320   1.046       .  S
N318        H321   1.046       .  S
N318        H322   1.046       .  S
C323        C324   1.400       .  A
C323        C328   1.402       .  A
C323        H330   1.084       .  S
C324        C325   1.414       .  A
C325        C326   1.401       .  A
C325        N332   1.439       .  S
C326        C327   1.402       .  A
C326        H331   1.084       .  S
C327        C328   1.412       .  A
C328        N329   1.432       .  S
N329        H333   1.045       .  S
N329        H334   1.045       .  S
N332        H335   1.045       .  S
N332        H336   1.046       .  S
C337        C338   1.404       .  A
C337        C342   1.413       .  A
C337        H344   1.083       .  S
C338        C339   1.410       .  A
C339        C340   1.405       .  A
C339        N346   1.439       .  S
C340        C341   1.404       .  A
C340        H345   1.084       .  S
C341        C342   1.414       .  A
C342        N343   1.437       .  S
N343        H347   1.045       .  S
N343        H348   1.046       .  S
N346        H349   1.045       .  S
N346        H350   1.045       .  S
C351        C352   1.407       .  A
C351        C356   1.394       .  A
C351        H358   1.084       .  S
C352        C353   1.408       .  A
C353        C354   1.408       .  A
C353        N360   1.436       .  S
C354        C355   1.410       .  A
C354        H359   1.084       .  S
C355        C356   1.415       .  A
C356        N357   1.431       .  S
N357        H361   1.045       .  S
N357        H362   1.044       .  S
N360        H363   1.045       .  S
N360        H364   1.046       .  S
C365        C366   1.399       .  A
C365        C370   1.398       .  A
C365        H372   1.084       .  S
C366        C367   1.420       .  A
C367        C368   1.406       .  A
C367        N374   1.438       .  S
C368        C369   1.401       .  A
C368        H373   1.084       .  S
C369        C370   1.414       .  A
C370        N371   1.437       .  S
N371        H375   1.045   1_455  S
N371        H376   1.045       .  S
N374        H377   1.042       .  S
N374        H378   1.046       .  S
C379        C380   1.403       .  A
C379        C384   1.407       .  A
C379        H386   1.075       .  S
C380        C496   1.541       .  S
C380        C381   1.429       .  A
C381        C382   1.397       .  A
C381        N808   1.441       .  S
C382        C383   1.399       .  A
C382        H387   1.084       .  S
C383        C384   1.413       .  A
C384        N385   1.439       .  S
N385        H389   1.045       .  S
N385        H390   1.045       .  S
N388        C801   1.441   1_545  S
N388        H391   1.038       .  S
N388        H812   1.046       .  S
H392        N808   1.045       .  S
C393        C394   1.407       .  A
C393        C398   1.398       .  A
C393        H400   1.084       .  S
C394        C395   1.408       .  A
C395        C396   1.412       .  A
C395        N402   1.436       .  S
C396        C397   1.409       .  A
C396        H401   1.084       .  S
C397        C857   1.477       .  S
C397        C398   1.408       .  A
C398        N399   1.433       .  S
N399        H403   1.044       .  S
N399        H404   1.046       .  S
N402        H405   1.045       .  S
N402        H406   1.046       .  S
C407        C408   1.405       .  A
C407        C412   1.400       .  A
C407        H414   1.084       .  S
C408        C409   1.408       .  A
C409        C410   1.402       .  A
C409        N416   1.438       .  S
C410        C411   1.408       .  A
C410        H415   1.083       .  S
C411        C412   1.410       .  A
C412        N413   1.433       .  S
N413        H417   1.046       .  S
N413        H418   1.045       .  S
N416        H419   1.046       .  S
N416        H420   1.045       .  S
O421        C424   1.268       .  A
O421       Cd426   2.542       .  S
C422        O431   1.267       .  A
C422        O427   1.270       .  A
C422        C448   1.541       .  S
O423        C429   1.273       .  A
O423       Cd426   2.459       .  S
C424        O432   1.273       .  A
C424        C471   1.500       .  S
C425        O430   1.274       .  A
C425        O428   1.258       .  A
C425        C814   1.480       .  S
Cd426       O433   2.400       .  S
Cd426       O432   2.530       .  S
Cd426       O431   2.545       .  S
Cd426       O427   2.556       .  S
Cd426       O430   2.569       .  S
Cd426       O428   2.395       .  S
C429        O433   1.263       .  A
C429        C828   1.471       .  S
O434        C437   1.266       .  A
O434       Cd439   2.471       .  S
C435        O444   1.266       .  A
C435        O440   1.269       .  A
C435        C831   1.476       .  S
O436        C442   1.263       .  A
O436       Cd439   2.436       .  S
C437        O445   1.269       .  A
C437       C1657   1.477       .  S
C438        O443   1.264       .  A
C438        O441   1.266       .  A
C438        C786   1.475       .  S
Cd439       O446   2.455       .  S
Cd439       O445   2.448       .  S
Cd439       O444   2.396       .  S
Cd439       O440   2.431       .  S
Cd439       O443   2.488       .  S
Cd439       O441   2.455       .  S
C442        O446   1.265       .  A
C442        C803   1.477       .  S
C447        C772   1.533       .  S
C448        C452   1.545       .  S
C448        C454   1.580       .  S
C448        C453   1.550   1_554  S
C449        C452   1.387   1_556  A
C450        C461   1.367       .  A
C450        C453   1.389       .  A
C451        C454   1.415   1_546  A
C452        C455   1.385       .  A
C453        C459   1.398       .  A
C454        C462   1.397       .  A
C455        N456   1.362       .  A
C455        H468   1.081       .  S
C457        H458   1.081       .  S
C459        N460   1.364       .  A
C459        H469   1.081       .  S
N460        C461   1.346       .  A
N460        C758   1.436       .  S
C461        H467   1.082       .  S
C462        N463   1.376   1_565  A
C462        H464   1.081       .  S
N463        N925   1.426       .  S
C465        H466   1.077       .  S
O470        C473   1.269       .  A
O470       Cd475   2.542   1_554  S
C471        O480   1.274       .  A
C471        O476   1.265       .  A
O472        C478   1.265       .  A
O472       Cd475   2.467       .  S
C473        O481   1.266   1_554  A
C473        C497   1.540       .  S
C474        O479   1.260       .  A
C474        O477   1.269       .  A
C474        C733   1.493       .  S
Cd475       O482   2.425       .  S
Cd475       O481   2.553       .  S
Cd475       O480   2.572   1_556  S
Cd475       O476   2.508   1_556  S
Cd475       O479   2.448       .  S
Cd475       O477   2.540       .  S
C478        O482   1.264       .  A
C478        C744   1.471       .  S
O483       C1326   1.266       .  A
O483       Cd488   2.481       .  S
C484        O493   1.265       .  A
C484        O489   1.272       .  A
C484        C747   1.473       .  S
O485        C491   1.268       .  A
O485       Cd488   2.532       .  S
C486       O1323   1.266       .  A
C486       O1334   1.270       .  A
C486        C730   1.486       .  S
C487        O492   1.264       .  A
C487        O490   1.264       .  A
C487        C775   1.484       .  S
Cd488       O495   2.478       .  S
Cd488       O494   2.471       .  S
Cd488       O493   2.394       .  S
Cd488       O489   2.441       .  S
Cd488       O492   2.454       .  S
Cd488       O490   2.457       .  S
C491        O495   1.266       .  A
C491        C719   1.492       .  S
O494       C1326   1.270       .  A
C496        C498   1.546       .  S
C496        C500   1.534       .  S
C496        C499   1.527       .  S
C497        C501   1.581       .  S
C497        C503   1.541       .  S
C497        C502   1.551       .  S
C498        C506   1.382       .  A
C498        C501   1.413       .  A
C499        C510   1.366       .  A
C499        C502   1.387       .  A
C500        C503   1.389       .  A
C501        C504   1.400       .  A
C502        C508   1.399       .  A
C503        C511   1.381       .  A
C504        N505   1.377       .  A
C504        H517   1.081       .  S
N505        C506   1.348       .  A
N505        N883   1.426   1_455  S
C508        N509   1.363       .  A
C508        H518   1.081       .  S
N509        C510   1.344       .  A
N509        C702   1.435       .  S
C510        H516   1.082       .  S
C511        N512   1.361       .  A
C511        H513   1.080       .  S
C514        H515   1.081       .  S
O519        C522   1.264       .  A
O519       Cd524   2.557       .  S
C520        O529   1.266       .  A
C520        O525   1.270       .  A
C520        C546   1.541       .  S
O521       C1367   1.256       .  A
O521       Cd524   2.400       .  S
C522        O530   1.271       .  A
C522        C991   1.499       .  S
C523        O528   1.262       .  A
C523        O526   1.269       .  A
C523        C677   1.492       .  S
Cd524      O1371   2.504       .  S
Cd524       O530   2.546       .  S
Cd524       O529   2.551       .  S
Cd524       O525   2.560       .  S
Cd524       O528   2.470       .  S
Cd524       O526   2.526       .  S
C527       O1361   1.256       .  A
C527        O531   1.270       .  A
C527        C691   1.470       .  S
O531      Cd1364   2.504       .  S
O532        C535   1.270       .  A
O532       Cd537   2.463       .  S
C533        O542   1.265       .  A
C533        O538   1.275       .  A
C533        C688   1.472       .  S
O534        C540   1.276       .  A
O534       Cd537   2.463       .  S
C535        O543   1.269       .  A
C535        C674   1.478       .  S
C536        O541   1.271       .  A
C536        O539   1.269       .  A
C536        C705   1.481       .  S
Cd537       O544   2.403       .  S
Cd537       O543   2.443       .  S
Cd537       O542   2.386       .  S
Cd537       O538   2.431       .  S
Cd537       O541   2.500       .  S
Cd537       O539   2.431       .  S
C540        O544   1.261       .  A
C540        C660   1.478       .  S
C545        C547   1.534       .  S
C545        C549   1.551       .  S
C545        C548   1.527       .  S
C545        C646   1.545       .  S
C546        C550   1.543       .  S
C546        C552   1.577       .  S
C546        C551   1.554       .  S
C547        C555   1.381       .  A
C547        C550   1.388       .  A
C548        C559   1.367       .  A
C548        C551   1.390       .  A
C549        C563   1.386       .  A
C549        C552   1.414       .  A
C550        C553   1.386       .  A
C551        C557   1.401       .  A
C552        C560   1.397       .  A
C553        N554   1.360       .  A
C553        H566   1.081       .  S
N554        C555   1.363       .  A
N554       N1450   1.419       .  S
C555        H556   1.081       .  S
C557        N558   1.366       .  A
C557        H567   1.081       .  S
N558        C559   1.344       .  A
N558        C716   1.439       .  S
C559        H565   1.082       .  S
C560        N561   1.376       .  A
C560        H562   1.081       .  S
N561        C563   1.350       .  A
N561        N603   1.426       .  S
C563        H564   1.075       .  S
O568        C571   1.263       .  A
O568       Cd573   2.494       .  S
C569        O578   1.263       .  A
C569        O574   1.272       .  A
C569        C595   1.537       .  S
O570        C576   1.273       .  A
O570       Cd573   2.557       .  S
C571        O579   1.276   1_565  A
C571        C942   1.499   1_565  S
C572        O577   1.270       .  A
C572        O575   1.264       .  A
C572       C1475   1.474       .  S
Cd573       O580   2.391       .  S
Cd573       O579   2.572   1_565  S
Cd573       O578   2.455       .  S
Cd573       O574   2.593       .  S
Cd573       O577   2.439       .  S
Cd573       O575   2.408       .  S
C576        O580   1.261       .  A
C576        C621   1.482       .  S
O581        C584   1.270       .  A
O581       Cd586   2.453       .  S
C582        O591   1.270       .  A
C582        O587   1.269       .  A
C582        C618   1.482       .  S
O583        C589   1.267       .  A
O583       Cd586   2.469       .  S
C584        O592   1.266       .  A
C584        C632   1.475       .  S
C585        O590   1.268       .  A
C585        O588   1.265       .  A
C585        C761   1.488       .  S
Cd586       O593   2.457       .  S
Cd586       O592   2.373       .  S
Cd586       O591   2.425       .  S
Cd586       O587   2.467       .  S
Cd586       O590   2.519       .  S
Cd586       O588   2.454       .  S
C589        O593   1.262       .  A
C589        C649   1.485       .  S
C594        C596   1.525       .  S
C594        C598   1.554       .  S
C594        C597   1.529       .  S
C594        C663   1.541       .  S
C595        C599   1.572       .  S
C595        C601   1.558       .  S
C595        C600   1.539       .  S
C596        C604   1.375       .  A
C596        C599   1.395       .  A
C597        C608   1.366       .  A
C597        C600   1.385       .  A
C598        C612   1.391       .  A
C598        C601   1.407       .  A
C599        C602   1.402       .  A
C600        C606   1.392       .  A
C601        C609   1.383       .  A
C602        N603   1.381       .  A
C602        H615   1.081       .  S
N603        C604   1.348       .  A
C604        H605   1.081       .  S
C606        N607   1.361       .  A
C606        H616   1.082       .  S
N607        C608   1.349       .  A
N607        C789   1.434       .  S
C608        H614   1.083       .  S
C609        N610   1.355       .  A
C609        H611   1.078       .  S
N610        C612   1.363       .  A
N610       N1394   1.419       .  S
C612        H613   1.077       .  S
C617        C618   1.398       .  A
C617        C622   1.400       .  A
C617        H624   1.084       .  S
C618        C619   1.419       .  A
C619        C620   1.415       .  A
C619        N626   1.437       .  S
C620        C621   1.402       .  A
C620        H625   1.083       .  S
C621        C622   1.414       .  A
C622        N623   1.438       .  S
N623        H627   1.045       .  S
N623        H628   1.046       .  S
N626        H629   1.046   1_565  S
N626        H630   1.045   1_565  S
C631        C632   1.408       .  A
C631        C636   1.394       .  A
C631        H638   1.084       .  S
C632        C633   1.414       .  A
C633        C634   1.399       .  A
C633        N640   1.433   1_565  S
C634        C635   1.408       .  A
C634        H639   1.084   1_565  S
C635       C1412   1.474       .  S
C635        C636   1.405       .  A
C636       N1477   1.433       .  S
N637       C1476   1.433       .  S
N637        H641   1.046       .  S
N637        H642   1.045       .  S
N640        H643   1.046       .  S
N640        H644   1.044       .  S
C645        C646   1.403       .  A
C645        C650   1.405       .  A
C645        H652   1.075       .  S
C646        C647   1.431       .  A
C647        C648   1.400       .  A
C647        N654   1.439       .  S
C648        C649   1.400       .  A
C648        H653   1.084       .  S
C649        C650   1.413       .  A
C650        N651   1.433       .  S
N651        H655   1.046       .  S
N651        H656   1.046       .  S
N654        H657   1.040       .  S
N654        H658   1.044       .  S
C659        C660   1.410       .  A
C659        C664   1.405       .  A
C659        H666   1.084       .  S
C660        C661   1.400       .  A
C661        C662   1.395       .  A
C661        N668   1.438       .  S
C662        C663   1.419       .  A
C662        H667   1.083       .  S
C663        C664   1.419       .  A
C664        N665   1.432       .  S
N665        H669   1.045       .  S
N665        H670   1.041       .  S
N668        H671   1.046       .  S
N668        H672   1.045       .  S
C673        C674   1.406       .  A
C673        C678   1.407       .  A
C673        H680   1.084       .  S
C674        C675   1.406       .  A
C675        C676   1.410       .  A
C675        N682   1.437       .  S
C676        C677   1.412       .  A
C676        H681   1.082       .  S
C677        C678   1.408       .  A
C678        N679   1.432       .  S
N679        H683   1.046       .  S
N679        H684   1.046       .  S
N682        H685   1.044       .  S
N682        H686   1.047       .  S
C687        C688   1.398       .  A
C687        C692   1.397   1_455  A
C687        H694   1.084       .  S
C688        C689   1.417       .  A
C689        C690   1.401       .  A
C689        N696   1.433       .  S
C690        C691   1.397   1_455  A
C690        H695   1.084       .  S
C691        C692   1.414       .  A
C692        N693   1.433       .  S
N693        H697   1.046       .  S
N693        H698   1.045       .  S
N696        H699   1.044       .  S
N696        H700   1.046       .  S
C701        C702   1.401       .  A
C701        C706   1.405       .  A
C701        H708   1.083       .  S
C702        C703   1.412       .  A
C703        C704   1.412       .  A
C703        N710   1.437       .  S
C704        C705   1.402       .  A
C704        H709   1.083       .  S
C705        C706   1.412       .  A
C706        N707   1.438       .  S
N707        H711   1.046       .  S
N707        H712   1.046       .  S
N710        H713   1.045       .  S
N710        H714   1.046       .  S
C715        C716   1.404       .  A
C715        C720   1.414       .  A
C715        H722   1.083       .  S
C716        C717   1.414       .  A
C717        C718   1.404       .  A
C717        N724   1.437       .  S
C718        C719   1.405       .  A
C718        H723   1.084       .  S
C719        C720   1.413       .  A
C720        N721   1.436       .  S
N721       H1565   1.046       .  S
N721        H726   1.045       .  S
N724        H727   1.045       .  S
N724        H728   1.046       .  S
H725       N1561   1.046       .  S
C729        C730   1.410       .  A
C729        C734   1.415       .  A
C729        H736   1.084       .  S
C730        C731   1.404   1_655  A
C731        C732   1.403       .  A
C731        N738   1.432       .  S
C732        C733   1.409       .  A
C732        H737   1.084       .  S
C733        C734   1.413   1_455  A
C734        N735   1.437       .  S
N735        H739   1.046       .  S
N735        H740   1.046       .  S
N738        H741   1.046       .  S
N738        H742   1.046       .  S
C743        C744   1.400       .  A
C743        C748   1.402       .  A
C743        H750   1.084       .  S
C744        C745   1.414       .  A
C745        C746   1.401       .  A
C745        N752   1.439       .  S
C746        C747   1.402       .  A
C746        H751   1.084       .  S
C747        C748   1.411       .  A
C748        N749   1.432       .  S
N749        H753   1.045       .  S
N749        H754   1.045       .  S
N752        H755   1.045       .  S
N752        H756   1.046       .  S
C757        C758   1.403       .  A
C757        C762   1.412       .  A
C757        H764   1.083       .  S
C758        C759   1.410       .  A
C759        C760   1.405       .  A
C759        N766   1.439       .  S
C760        C761   1.404       .  A
C760        H765   1.084       .  S
C761        C762   1.413       .  A
C762        N763   1.437       .  S
N763        H767   1.045       .  S
N763        H768   1.046       .  S
N766        H769   1.045       .  S
N766        H770   1.045       .  S
C771        C772   1.407       .  A
C771        C776   1.395       .  A
C771        H778   1.084       .  S
C772        C773   1.408       .  A
C773        C774   1.408       .  A
C773        N780   1.436       .  S
C774        C775   1.410       .  A
C774        H779   1.084       .  S
C775        C776   1.415       .  A
C776        N777   1.431       .  S
N777        H781   1.045       .  S
N777        H782   1.044       .  S
N780        H783   1.045       .  S
N780        H784   1.046       .  S
C785        C786   1.399       .  A
C785        C790   1.397       .  A
C785        H792   1.084       .  S
C786        C787   1.420       .  A
C787        C788   1.406       .  A
C787        N794   1.438       .  S
C788        C789   1.402       .  A
C788        H793   1.084       .  S
C789        C790   1.413       .  A
C790        N791   1.437       .  S
N791        H795   1.045   1_455  S
N791        H796   1.045       .  S
N794        H797   1.042       .  S
N794        H798   1.046       .  S
C799        C800   1.403       .  A
C799        C804   1.407       .  A
C799        H806   1.075       .  S
C800        C801   1.430       .  A
C801        C802   1.397       .  A
C802        C803   1.399       .  A
C802        H807   1.084       .  S
C803        C804   1.413       .  A
C804        N805   1.439       .  S
N805        H809   1.046       .  S
N805        H810   1.045       .  S
N808        H811   1.038       .  S
C813        C814   1.407       .  A
C813        C818   1.399       .  A
C813        H820   1.084       .  S
C814        C815   1.408       .  A
C815        C816   1.412       .  A
C815        N822   1.436       .  S
C816        C817   1.408       .  A
C816        H821   1.084       .  S
C817       C1277   1.477       .  S
C817        C818   1.408       .  A
C818        N819   1.433       .  S
N819        H823   1.044       .  S
N819        H824   1.046       .  S
N822        H825   1.045       .  S
N822        H826   1.046       .  S
C827        C828   1.404       .  A
C827        C832   1.400       .  A
C827        H834   1.084       .  S
C828        C829   1.408       .  A
C829        C830   1.402       .  A
C829        N836   1.438       .  S
C830        C831   1.408       .  A
C830        H835   1.083       .  S
C831        C832   1.410       .  A
C832        N833   1.433       .  S
N833        H837   1.046       .  S
N833        H838   1.045       .  S
N836        H839   1.046       .  S
N836        H840   1.045       .  S
O841        C844   1.268       .  A
O841       Cd846   2.543       .  S
C842        O851   1.267       .  A
C842        O847   1.270       .  A
C842        C868   1.541       .  S
O843        C849   1.274       .  A
O843       Cd846   2.460       .  S
C844        O852   1.273       .  A
C844        C891   1.500       .  S
C845        O850   1.274       .  A
C845        O848   1.258       .  A
C845       C1234   1.479       .  S
Cd846       O853   2.407       .  S
Cd846       O852   2.530       .  S
Cd846       O851   2.547       .  S
Cd846       O847   2.555       .  S
Cd846       O850   2.569       .  S
Cd846       O848   2.391       .  S
C849        O853   1.263       .  A
C849       C1248   1.473       .  S
O854        C857   1.266       .  A
O854       Cd859   2.471       .  S
C855        O864   1.266       .  A
C855        O860   1.269       .  A
C855       C1251   1.476       .  S
O856        C862   1.263       .  A
O856       Cd859   2.433       .  S
C857        O865   1.269       .  A
C858        O863   1.264       .  A
C858        O861   1.267       .  A
C858       C1206   1.475       .  S
Cd859       O866   2.455       .  S
Cd859       O865   2.446       .  S
Cd859       O864   2.398       .  S
Cd859       O860   2.435       .  S
Cd859       O863   2.488       .  S
Cd859       O861   2.459       .  S
C862        O866   1.264       .  A
C862       C1223   1.478       .  S
C867       C1289   1.526   1_545  S
C867       C1291   1.542       .  S
C867       C1290   1.531   1_545  S
C867       C1192   1.533       .  S
C868        C872   1.545       .  S
C868        C874   1.578       .  S
C868        C873   1.551   1_554  S
C869       C1287   1.526       .  S
C869       C1297   1.377       .  A
C869        C872   1.388   1_556  A
C870       C1287   1.531       .  S
C870        C881   1.367       .  A
C870        C873   1.389       .  A
C871       C1287   1.543       .  S
C871       C1305   1.385       .  A
C871        C874   1.414   1_556  A
C872        C875   1.385       .  A
C873        C879   1.398       .  A
C874        C882   1.396       .  A
C875        N876   1.361       .  A
C875        H888   1.081       .  S
N876       C1297   1.360   1_554  A
N876       N1352   1.417       .  S
C877       C1289   1.377   1_545  A
C877       N1296   1.359   1_546  A
C877        H878   1.081       .  S
C879        N880   1.364       .  A
C879        H889   1.081       .  S
N880        C881   1.346       .  A
N880       C1178   1.437       .  S
C881        H887   1.082       .  S
C882        N883   1.375       .  A
C882        H884   1.081       .  S
N883       C1305   1.349   1_554  A
C885       C1291   1.384       .  A
C885       N1303   1.349   1_556  A
C885        H886   1.077       .  S
O890        C893   1.269       .  A
O890       Cd895   2.544   1_554  S
C891        O900   1.274       .  A
C891        O896   1.265       .  A
O892        C898   1.265       .  A
O892       Cd895   2.467       .  S
C893        O901   1.266   1_554  A
C893        C917   1.541       .  S
C894        O899   1.260       .  A
C894        O897   1.269       .  A
C894       C1153   1.493       .  S
Cd895       O902   2.426       .  S
Cd895       O901   2.554       .  S
Cd895       O900   2.573   1_556  S
Cd895       O896   2.507   1_556  S
Cd895       O899   2.451       .  S
Cd895       O897   2.540       .  S
C898        O902   1.263       .  A
C898       C1164   1.472       .  S
O903       Cd908   2.481       .  S
C904        O913   1.265       .  A
C904        O909   1.272       .  A
C904       C1167   1.473       .  S
O905        C911   1.268       .  A
O905       Cd908   2.533       .  S
C906       C1150   1.486       .  S
C907        O912   1.264       .  A
C907        O910   1.264       .  A
C907       C1195   1.484       .  S
Cd908       O915   2.480       .  S
Cd908       O914   2.474       .  S
Cd908       O913   2.395       .  S
Cd908       O909   2.442       .  S
Cd908       O912   2.454       .  S
Cd908       O910   2.458       .  S
C911        O915   1.266       .  A
C911       C1139   1.493       .  S
C916        C918   1.546       .  S
C916        C920   1.533       .  S
C916        C919   1.527       .  S
C916       C1640   1.540   1_545  S
C917        C921   1.582       .  S
C917        C923   1.541       .  S
C917        C922   1.551       .  S
C918        C926   1.383   1_545  A
C918        C921   1.413       .  A
C919        C930   1.366       .  A
C919        C922   1.387       .  A
C920       C1354   1.380   1_545  A
C920        C923   1.389       .  A
C921        C924   1.400       .  A
C922        C928   1.399       .  A
C923        C931   1.382       .  A
C924        N925   1.377       .  A
C924        H937   1.081       .  S
N925        C926   1.349   1_545  A
C926       H1347   1.075       .  S
H927       C1346   1.075       .  S
C928        N929   1.363       .  A
C928        H938   1.081       .  S
N929        C930   1.344       .  A
N929       C1122   1.435       .  S
C930        H936   1.082       .  S
C931        N932   1.361       .  A
C931        H933   1.080       .  S
N932       C1354   1.360   1_545  A
N932       N1296   1.417   1_545  S
C934       C1340   1.381       .  A
C934       N1352   1.361       .  A
C934        H935   1.081       .  S
O939        C942   1.264       .  A
O939       Cd944   2.556   1_455  S
C940        O949   1.266       .  A
C940        O945   1.270       .  A
C940        C966   1.541       .  S
O941       Cd944   2.401       .  S
C942        O950   1.271   1_455  A
C943        O948   1.262       .  A
C943        O946   1.269       .  A
C943       C1097   1.492       .  S
Cd944       O950   2.546       .  S
Cd944       O949   2.551       .  S
Cd944       O945   2.561       .  S
Cd944       O948   2.470       .  S
Cd944       O946   2.526       .  S
C947        O951   1.270       .  A
C947       C1111   1.471       .  S
O952        C955   1.270       .  A
O952       Cd957   2.462       .  S
C953        O962   1.265       .  A
C953        O958   1.275       .  A
C953       C1108   1.473       .  S
O954        C960   1.276       .  A
O954       Cd957   2.463       .  S
C955        O963   1.269       .  A
C955       C1094   1.478       .  S
C956        O961   1.271       .  A
C956        O959   1.269       .  A
C956       C1125   1.481       .  S
Cd957       O964   2.403       .  S
Cd957       O963   2.445       .  S
Cd957       O962   2.386       .  S
Cd957       O958   2.431       .  S
Cd957       O961   2.500       .  S
Cd957       O959   2.430       .  S
C960        O964   1.261       .  A
C960       C1080   1.478       .  S
C965        C967   1.534       .  S
C965        C969   1.551       .  S
C965        C968   1.527       .  S
C965       C1066   1.545       .  S
C966        C970   1.543       .  S
C966        C972   1.577       .  S
C966        C971   1.554       .  S
C967        C975   1.381       .  A
C967        C970   1.388       .  A
C968        C979   1.367       .  A
C968        C971   1.390       .  A
C969        C983   1.386       .  A
C969        C972   1.414       .  A
C970        C973   1.386       .  A
C971        C977   1.401       .  A
C972        C980   1.397       .  A
C973        N974   1.360   1_655  A
C973        H986   1.081       .  S
N974        C975   1.364   1_455  A
C975        H976   1.081       .  S
C977        N978   1.366       .  A
C977        H987   1.081       .  S
N978        C979   1.344       .  A
N978       C1136   1.439       .  S
C979        H985   1.082       .  S
C980        N981   1.376       .  A
C980        H982   1.081       .  S
N981        C983   1.350       .  A
N981       N1023   1.426       .  S
C983        H984   1.075       .  S
O988        C991   1.263       .  A
O988       Cd993   2.493       .  S
C989        O998   1.263       .  A
C989        O994   1.272       .  A
C989       C1015   1.537       .  S
O990        C996   1.274       .  A
O990       Cd993   2.556       .  S
C991        O999   1.276       .  A
C992        O997   1.270       .  A
C992        O995   1.264       .  A
Cd993      O1000   2.391       .  S
Cd993       O999   2.572       .  S
Cd993       O998   2.455       .  S
Cd993       O994   2.592       .  S
Cd993       O997   2.439       .  S
Cd993       O995   2.409       .  S
C996       O1000   1.261       .  A
C996       C1041   1.482       .  S
O1001      C1004   1.270       .  A
O1001     Cd1006   2.454       .  S
C1002      O1011   1.270       .  A
C1002      O1007   1.269       .  A
C1002      C1038   1.482       .  S
O1003      C1009   1.267       .  A
O1003     Cd1006   2.469       .  S
C1004      O1012   1.265       .  A
C1004      C1052   1.475   1_655  S
C1005      O1010   1.268       .  A
C1005      O1008   1.265       .  A
C1005      C1181   1.488       .  S
Cd1006     O1013   2.458       .  S
Cd1006     O1012   2.373       .  S
Cd1006     O1011   2.425       .  S
Cd1006     O1007   2.467       .  S
Cd1006     O1010   2.520       .  S
Cd1006     O1008   2.455       .  S
C1009      O1013   1.262       .  A
C1009      C1069   1.485       .  S
C1014      C1016   1.525       .  S
C1014      C1018   1.554       .  S
C1014      C1017   1.529       .  S
C1014      C1083   1.541       .  S
C1015      C1019   1.572       .  S
C1015      C1021   1.558       .  S
C1015      C1020   1.540       .  S
C1016      C1024   1.375       .  A
C1016      C1019   1.395       .  A
C1017      C1028   1.366       .  A
C1017      C1020   1.385       .  A
C1018      C1032   1.391       .  A
C1018      C1021   1.407       .  A
C1019      C1022   1.403       .  A
C1020      C1026   1.393       .  A
C1021      C1029   1.383       .  A
C1022      N1023   1.381       .  A
C1022      H1035   1.081       .  S
N1023      C1024   1.348       .  A
C1024      H1025   1.081       .  S
C1026      N1027   1.361       .  A
C1026      H1036   1.082       .  S
N1027      C1028   1.349       .  A
N1027      C1209   1.434       .  S
C1028      H1034   1.083       .  S
C1029      N1030   1.355       .  A
C1029      H1031   1.078       .  S
N1030      C1032   1.363       .  A
C1032      H1033   1.077       .  S
C1037      C1038   1.398       .  A
C1037      C1042   1.400       .  A
C1037      H1044   1.084       .  S
C1038      C1039   1.419       .  A
C1039      C1040   1.415       .  A
C1039      N1046   1.437       .  S
C1040      C1041   1.401       .  A
C1040      H1045   1.083       .  S
C1041      C1042   1.414       .  A
C1042      N1043   1.438       .  S
N1043      H1047   1.045       .  S
N1043      H1048   1.046       .  S
N1046      H1049   1.046       .  S
N1046      H1050   1.045       .  S
C1051      C1052   1.408       .  A
C1051      C1056   1.393       .  A
C1051      H1058   1.084       .  S
C1052      C1053   1.414       .  A
C1053      C1054   1.399       .  A
C1053      N1060   1.433       .  S
C1054      C1055   1.408       .  A
C1054      H1059   1.084       .  S
C1055      C1056   1.405       .  A
N1057      H1061   1.046       .  S
N1057      H1062   1.045       .  S
N1060      H1063   1.046       .  S
N1060      H1064   1.044   1_455  S
C1065      C1066   1.403       .  A
C1065      C1070   1.405       .  A
C1065      H1072   1.075       .  S
C1066      C1067   1.431       .  A
C1067      C1068   1.400       .  A
C1067      N1074   1.439       .  S
C1068      C1069   1.400       .  A
C1068      H1073   1.084       .  S
C1069      C1070   1.413       .  A
C1070      N1071   1.433       .  S
N1071      H1075   1.046       .  S
N1071      H1076   1.046       .  S
N1074      H1077   1.040       .  S
N1074      H1078   1.044       .  S
C1079      C1080   1.410       .  A
C1079      C1084   1.405       .  A
C1079      H1086   1.084       .  S
C1080      C1081   1.400       .  A
C1081      C1082   1.395       .  A
C1081      N1088   1.438       .  S
C1082      C1083   1.419       .  A
C1082      H1087   1.083       .  S
C1083      C1084   1.419       .  A
C1084      N1085   1.432       .  S
N1085      H1089   1.045       .  S
N1085      H1090   1.041       .  S
N1088      H1091   1.046       .  S
N1088      H1092   1.045       .  S
C1093      C1094   1.406       .  A
C1093      C1098   1.407       .  A
C1093      H1100   1.084       .  S
C1094      C1095   1.406       .  A
C1095      C1096   1.410       .  A
C1095      N1102   1.437       .  S
C1096      C1097   1.412       .  A
C1096      H1101   1.082       .  S
C1097      C1098   1.408       .  A
C1098      N1099   1.432       .  S
N1099      H1103   1.046       .  S
N1099      H1104   1.046       .  S
N1102      H1105   1.045   1_545  S
N1102      H1106   1.046       .  S
C1107      C1108   1.398       .  A
C1107      C1112   1.397       .  A
C1107      H1114   1.084       .  S
C1108      C1109   1.417       .  A
C1109      C1110   1.401       .  A
C1109      N1116   1.433       .  S
C1110      C1111   1.397       .  A
C1110      H1115   1.084       .  S
C1111      C1112   1.414       .  A
C1112      N1113   1.433       .  S
N1113      H1117   1.046       .  S
N1113      H1118   1.046       .  S
N1116      H1119   1.044       .  S
N1116      H1120   1.047       .  S
C1121      C1122   1.401       .  A
C1121      C1126   1.405       .  A
C1121      H1128   1.083       .  S
C1122      C1123   1.412       .  A
C1123      C1124   1.412       .  A
C1123      N1130   1.437       .  S
C1124      C1125   1.403       .  A
C1124      H1129   1.083       .  S
C1125      C1126   1.412       .  A
C1126      N1127   1.438       .  S
N1127      H1131   1.046       .  S
N1127      H1132   1.046       .  S
N1130      H1133   1.045       .  S
N1130      H1134   1.045       .  S
C1135      C1136   1.404       .  A
C1135      C1140   1.414       .  A
C1135      H1142   1.083       .  S
C1136      C1137   1.414       .  A
C1137      C1138   1.404       .  A
C1137      N1144   1.437       .  S
C1138      C1139   1.405       .  A
C1138      H1143   1.084       .  S
C1139      C1140   1.414       .  A
C1140      N1141   1.436       .  S
N1141      H1146   1.045       .  S
N1144      H1147   1.045       .  S
N1144      H1148   1.046       .  S
C1149      C1150   1.410       .  A
C1149      C1154   1.415       .  A
C1149      H1156   1.084       .  S
C1150      C1151   1.404       .  A
C1151      C1152   1.403       .  A
C1151      N1158   1.432       .  S
C1152      C1153   1.409       .  A
C1152      H1157   1.084       .  S
C1153      C1154   1.413       .  A
C1154      N1155   1.437       .  S
N1155      H1159   1.046       .  S
N1155      H1160   1.046       .  S
N1158      H1161   1.046       .  S
N1158      H1162   1.046       .  S
C1163      C1164   1.400       .  A
C1163      C1168   1.402       .  A
C1163      H1170   1.084       .  S
C1164      C1165   1.414       .  A
C1165      C1166   1.401       .  A
C1165      N1172   1.439       .  S
C1166      C1167   1.402       .  A
C1166      H1171   1.084       .  S
C1167      C1168   1.412       .  A
C1168      N1169   1.432       .  S
N1169      H1173   1.045       .  S
N1169      H1174   1.045       .  S
N1172      H1175   1.045       .  S
N1172      H1176   1.046       .  S
C1177      C1178   1.404       .  A
C1177      C1182   1.413       .  A
C1177      H1184   1.083       .  S
C1178      C1179   1.410       .  A
C1179      C1180   1.405       .  A
C1179      N1186   1.439       .  S
C1180      C1181   1.404       .  A
C1180      H1185   1.084       .  S
C1181      C1182   1.414       .  A
C1182      N1183   1.437       .  S
N1183      H1187   1.045       .  S
N1183      H1188   1.046       .  S
N1186      H1189   1.045       .  S
N1186      H1190   1.045       .  S
C1191      C1192   1.407       .  A
C1191      C1196   1.394       .  A
C1191      H1198   1.084       .  S
C1192      C1193   1.408       .  A
C1193      C1194   1.408       .  A
C1193      N1200   1.436       .  S
C1194      C1195   1.410       .  A
C1194      H1199   1.084       .  S
C1195      C1196   1.415       .  A
C1196      N1197   1.431       .  S
N1197      H1201   1.045       .  S
N1197      H1202   1.044       .  S
N1200      H1203   1.045       .  S
N1200      H1204   1.046       .  S
C1205      C1206   1.399       .  A
C1205      C1210   1.398       .  A
C1205      H1212   1.084       .  S
C1206      C1207   1.420       .  A
C1207      C1208   1.406       .  A
C1207      N1214   1.438       .  S
C1208      C1209   1.401       .  A
C1208      H1213   1.084       .  S
C1209      C1210   1.414       .  A
C1210      N1211   1.437       .  S
N1211      H1215   1.045       .  S
N1211      H1216   1.045       .  S
N1214      H1217   1.042       .  S
N1214      H1218   1.046       .  S
C1219      C1220   1.403       .  A
C1219      C1224   1.407       .  A
C1219      H1226   1.075       .  S
C1220      C1336   1.541       .  S
C1220      C1221   1.429       .  A
C1221      C1222   1.397       .  A
C1221      N1648   1.441       .  S
C1222      C1223   1.399       .  A
C1222      H1227   1.084       .  S
C1223      C1224   1.413       .  A
C1224      N1225   1.439       .  S
N1225      H1229   1.045       .  S
N1225      H1230   1.045       .  S
N1228      C1641   1.441   1_545  S
N1228      H1231   1.038       .  S
N1228      H1652   1.046       .  S
H1232      N1648   1.045       .  S
C1233      C1234   1.407       .  A
C1233      C1238   1.398       .  A
C1233      H1240   1.084       .  S
C1234      C1235   1.407       .  A
C1235      C1236   1.412   1_655  A
C1235      N1242   1.436   1_655  S
C1236      C1237   1.409       .  A
C1236      H1241   1.084       .  S
C1237      C1238   1.408   1_455  A
C1238      N1239   1.433       .  S
N1239      H1243   1.044       .  S
N1239      H1244   1.046       .  S
N1242      H1245   1.045       .  S
N1242      H1246   1.046       .  S
C1247      C1248   1.405       .  A
C1247      C1252   1.400       .  A
C1247      H1254   1.084       .  S
C1248      C1249   1.408       .  A
C1249      C1250   1.402       .  A
C1249      N1256   1.438       .  S
C1250      C1251   1.408       .  A
C1250      H1255   1.083       .  S
C1251      C1252   1.410       .  A
C1252      N1253   1.433       .  S
N1253      H1257   1.046       .  S
N1253      H1258   1.045       .  S
N1256      H1259   1.046       .  S
N1256      H1260   1.045       .  S
O1261      C1264   1.268       .  A
O1261     Cd1266   2.542       .  S
C1262      O1271   1.267       .  A
C1262      O1267   1.270       .  A
C1262      C1288   1.541       .  S
O1263      C1269   1.273       .  A
O1263     Cd1266   2.459       .  S
C1264      O1272   1.273       .  A
C1264      C1311   1.500       .  S
C1265      O1270   1.274       .  A
C1265      O1268   1.258       .  A
C1265      C1654   1.480       .  S
Cd1266     O1273   2.400       .  S
Cd1266     O1272   2.530       .  S
Cd1266     O1271   2.545       .  S
Cd1266     O1267   2.556       .  S
Cd1266     O1270   2.569       .  S
Cd1266     O1268   2.395       .  S
C1269      O1273   1.263       .  A
C1269      C1668   1.471       .  S
O1274      C1277   1.266       .  A
O1274     Cd1279   2.471       .  S
C1275      O1284   1.266       .  A
C1275      O1280   1.269       .  A
C1275      C1671   1.476       .  S
O1276      C1282   1.263       .  A
O1276     Cd1279   2.436       .  S
C1277      O1285   1.269       .  A
C1278      O1283   1.264       .  A
C1278      O1281   1.266       .  A
C1278      C1626   1.475       .  S
Cd1279     O1286   2.455       .  S
Cd1279     O1285   2.448       .  S
Cd1279     O1284   2.396       .  S
Cd1279     O1280   2.431       .  S
Cd1279     O1283   2.488       .  S
Cd1279     O1281   2.455       .  S
C1282      O1286   1.265       .  A
C1282      C1643   1.477       .  S
C1287      C1612   1.533       .  S
C1288      C1292   1.545       .  S
C1288      C1294   1.580       .  S
C1288      C1293   1.550   1_554  S
C1289      C1292   1.387   1_556  A
C1290      C1301   1.367       .  A
C1290      C1293   1.389       .  A
C1291      C1294   1.415   1_546  A
C1292      C1295   1.385       .  A
C1293      C1299   1.398       .  A
C1294      C1302   1.397       .  A
C1295      N1296   1.362       .  A
C1295      H1308   1.081       .  S
C1297      H1298   1.081       .  S
C1299      N1300   1.364       .  A
C1299      H1309   1.081       .  S
N1300      C1301   1.346       .  A
N1300      C1598   1.436       .  S
C1301      H1307   1.082       .  S
C1302      N1303   1.376   1_565  A
C1302      H1304   1.081       .  S
C1305      H1306   1.077       .  S
O1310      C1313   1.269       .  A
O1310     Cd1315   2.542   1_554  S
C1311      O1320   1.274       .  A
C1311      O1316   1.265       .  A
O1312      C1318   1.265       .  A
O1312     Cd1315   2.467       .  S
C1313      O1321   1.266   1_554  A
C1313      C1337   1.540       .  S
C1314      O1319   1.260       .  A
C1314      O1317   1.269       .  A
C1314      C1573   1.493       .  S
Cd1315     O1322   2.425       .  S
Cd1315     O1321   2.552       .  S
Cd1315     O1320   2.572   1_556  S
Cd1315     O1316   2.507   1_556  S
Cd1315     O1319   2.448       .  S
Cd1315     O1317   2.540       .  S
C1318      O1322   1.264       .  A
C1318      C1584   1.471       .  S
O1323     Cd1328   2.481       .  S
C1324      O1333   1.265       .  A
C1324      O1329   1.272       .  A
C1324      C1587   1.473       .  S
O1325      C1331   1.268       .  A
O1325     Cd1328   2.531       .  S
C1326      C1570   1.486       .  S
C1327      O1332   1.264       .  A
C1327      O1330   1.264       .  A
C1327      C1615   1.484       .  S
Cd1328     O1335   2.478       .  S
Cd1328     O1334   2.472       .  S
Cd1328     O1333   2.394       .  S
Cd1328     O1329   2.441       .  S
Cd1328     O1332   2.454       .  S
Cd1328     O1330   2.457       .  S
C1331      O1335   1.266       .  A
C1331      C1559   1.492       .  S
C1336      C1338   1.546       .  S
C1336      C1340   1.533       .  S
C1336      C1339   1.527       .  S
C1337      C1341   1.581       .  S
C1337      C1343   1.541       .  S
C1337      C1342   1.551       .  S
C1338      C1346   1.382       .  A
C1338      C1341   1.413       .  A
C1339      C1350   1.366       .  A
C1339      C1342   1.387       .  A
C1340      C1343   1.389       .  A
C1341      C1344   1.400       .  A
C1342      C1348   1.399       .  A
C1343      C1351   1.381       .  A
C1344      N1345   1.377       .  A
C1344      H1357   1.081       .  S
N1345      C1346   1.348       .  A
C1348      N1349   1.363       .  A
C1348      H1358   1.081       .  S
N1349      C1350   1.344       .  A
N1349      C1542   1.435       .  S
C1350      H1356   1.082       .  S
C1351      N1352   1.361       .  A
C1351      H1353   1.080       .  S
C1354      H1355   1.081       .  S
O1359      C1362   1.264       .  A
O1359     Cd1364   2.556   1_455  S
C1360      O1369   1.266       .  A
C1360      O1365   1.270       .  A
C1360      C1386   1.541       .  S
O1361     Cd1364   2.400       .  S
C1362      O1370   1.271   1_455  A
C1363      O1368   1.262       .  A
C1363      O1366   1.269       .  A
C1363      C1517   1.492       .  S
Cd1364     O1370   2.546       .  S
Cd1364     O1369   2.551       .  S
Cd1364     O1365   2.560       .  S
Cd1364     O1368   2.470       .  S
Cd1364     O1366   2.526       .  S
C1367      O1371   1.270       .  A
C1367      C1531   1.470       .  S
O1372      C1375   1.270       .  A
O1372     Cd1377   2.463       .  S
C1373      O1382   1.265       .  A
C1373      O1378   1.275       .  A
C1373      C1528   1.472       .  S
O1374      C1380   1.276       .  A
O1374     Cd1377   2.463       .  S
C1375      O1383   1.269       .  A
C1375      C1514   1.478       .  S
C1376      O1381   1.271       .  A
C1376      O1379   1.269       .  A
C1376      C1545   1.481       .  S
Cd1377     O1384   2.403       .  S
Cd1377     O1383   2.443       .  S
Cd1377     O1382   2.386       .  S
Cd1377     O1378   2.431       .  S
Cd1377     O1381   2.500       .  S
Cd1377     O1379   2.431       .  S
C1380      O1384   1.261       .  A
C1380      C1500   1.478       .  S
C1385      C1387   1.534       .  S
C1385      C1389   1.551       .  S
C1385      C1388   1.527       .  S
C1385      C1486   1.545       .  S
C1386      C1390   1.543       .  S
C1386      C1392   1.577       .  S
C1386      C1391   1.554       .  S
C1387      C1395   1.381       .  A
C1387      C1390   1.388       .  A
C1388      C1399   1.367       .  A
C1388      C1391   1.390       .  A
C1389      C1403   1.386       .  A
C1389      C1392   1.414       .  A
C1390      C1393   1.386       .  A
C1391      C1397   1.401       .  A
C1392      C1400   1.397       .  A
C1393      N1394   1.360   1_655  A
C1393      H1406   1.081       .  S
N1394      C1395   1.363   1_455  A
C1395      H1396   1.081       .  S
C1397      N1398   1.366       .  A
C1397      H1407   1.081       .  S
N1398      C1399   1.344       .  A
N1398      C1556   1.439       .  S
C1399      H1405   1.082       .  S
C1400      N1401   1.376       .  A
C1400      H1402   1.081       .  S
N1401      C1403   1.350       .  A
N1401      N1443   1.426       .  S
C1403      H1404   1.075       .  S
O1408      C1411   1.263       .  A
O1408     Cd1413   2.494       .  S
C1409      O1418   1.263       .  A
C1409      O1414   1.272       .  A
C1409      C1435   1.537       .  S
O1410      C1416   1.273       .  A
O1410     Cd1413   2.556       .  S
C1411      O1419   1.276   1_565  A
C1412      O1417   1.270       .  A
C1412      O1415   1.264       .  A
Cd1413     O1420   2.391       .  S
Cd1413     O1419   2.572   1_565  S
Cd1413     O1418   2.455       .  S
Cd1413     O1414   2.593       .  S
Cd1413     O1417   2.439       .  S
Cd1413     O1415   2.408       .  S
C1416      O1420   1.261       .  A
C1416      C1461   1.482       .  S
O1421      C1424   1.270       .  A
O1421     Cd1426   2.453       .  S
C1422      O1431   1.270       .  A
C1422      O1427   1.269       .  A
C1422      C1458   1.482       .  S
O1423      C1429   1.267       .  A
O1423     Cd1426   2.469       .  S
C1424      O1432   1.266       .  A
C1424      C1472   1.475   1_655  S
C1425      O1430   1.268       .  A
C1425      O1428   1.265       .  A
C1425      C1601   1.488       .  S
Cd1426     O1433   2.457       .  S
Cd1426     O1432   2.373       .  S
Cd1426     O1431   2.425       .  S
Cd1426     O1427   2.467       .  S
Cd1426     O1430   2.519       .  S
Cd1426     O1428   2.454       .  S
C1429      O1433   1.262       .  A
C1429      C1489   1.485       .  S
C1434      C1436   1.525       .  S
C1434      C1438   1.554       .  S
C1434      C1437   1.529       .  S
C1434      C1503   1.541       .  S
C1435      C1439   1.572       .  S
C1435      C1441   1.558       .  S
C1435      C1440   1.539       .  S
C1436      C1444   1.375       .  A
C1436      C1439   1.395       .  A
C1437      C1448   1.366       .  A
C1437      C1440   1.385       .  A
C1438      C1452   1.391       .  A
C1438      C1441   1.407       .  A
C1439      C1442   1.402       .  A
C1440      C1446   1.392       .  A
C1441      C1449   1.383       .  A
C1442      N1443   1.381       .  A
C1442      H1455   1.081       .  S
N1443      C1444   1.348       .  A
C1444      H1445   1.081       .  S
C1446      N1447   1.361       .  A
C1446      H1456   1.082       .  S
N1447      C1448   1.349       .  A
N1447      C1629   1.434       .  S
C1448      H1454   1.083       .  S
C1449      N1450   1.355       .  A
C1449      H1451   1.078       .  S
N1450      C1452   1.363       .  A
C1452      H1453   1.077       .  S
C1457      C1458   1.398       .  A
C1457      C1462   1.400       .  A
C1457      H1464   1.084       .  S
C1458      C1459   1.419       .  A
C1459      C1460   1.415       .  A
C1459      N1466   1.437       .  S
C1460      C1461   1.402       .  A
C1460      H1465   1.083       .  S
C1461      C1462   1.414       .  A
C1462      N1463   1.438       .  S
N1463      H1467   1.045       .  S
N1463      H1468   1.046       .  S
N1466      H1469   1.046   1_565  S
N1466      H1470   1.045   1_565  S
C1471      C1472   1.408       .  A
C1471      C1476   1.394       .  A
C1471      H1478   1.084       .  S
C1472      C1473   1.414       .  A
C1473      C1474   1.399       .  A
C1473      N1480   1.433   1_565  S
C1474      C1475   1.408       .  A
C1474      H1479   1.084   1_565  S
C1475      C1476   1.405       .  A
N1477      H1481   1.046       .  S
N1477      H1482   1.045       .  S
N1480      H1483   1.046       .  S
N1480      H1484   1.044   1_455  S
C1485      C1486   1.403       .  A
C1485      C1490   1.405       .  A
C1485      H1492   1.075       .  S
C1486      C1487   1.431       .  A
C1487      C1488   1.400       .  A
C1487      N1494   1.439       .  S
C1488      C1489   1.400       .  A
C1488      H1493   1.084       .  S
C1489      C1490   1.413       .  A
C1490      N1491   1.433       .  S
N1491      H1495   1.046       .  S
N1491      H1496   1.046       .  S
N1494      H1497   1.040       .  S
N1494      H1498   1.044       .  S
C1499      C1500   1.410       .  A
C1499      C1504   1.405       .  A
C1499      H1506   1.084       .  S
C1500      C1501   1.400       .  A
C1501      C1502   1.395       .  A
C1501      N1508   1.438       .  S
C1502      C1503   1.419       .  A
C1502      H1507   1.083       .  S
C1503      C1504   1.419       .  A
C1504      N1505   1.432       .  S
N1505      H1509   1.045       .  S
N1505      H1510   1.041       .  S
N1508      H1511   1.046       .  S
N1508      H1512   1.045       .  S
C1513      C1514   1.406       .  A
C1513      C1518   1.407       .  A
C1513      H1520   1.084       .  S
C1514      C1515   1.406       .  A
C1515      C1516   1.410       .  A
C1515      N1522   1.437       .  S
C1516      C1517   1.412       .  A
C1516      H1521   1.082       .  S
C1517      C1518   1.408       .  A
C1518      N1519   1.432       .  S
N1519      H1523   1.046       .  S
N1519      H1524   1.046       .  S
N1522      H1525   1.044       .  S
N1522      H1526   1.047       .  S
C1527      C1528   1.398       .  A
C1527      C1532   1.397       .  A
C1527      H1534   1.084       .  S
C1528      C1529   1.417       .  A
C1529      C1530   1.401       .  A
C1529      N1536   1.433       .  S
C1530      C1531   1.397       .  A
C1530      H1535   1.084       .  S
C1531      C1532   1.414       .  A
C1532      N1533   1.433       .  S
N1533      H1537   1.046       .  S
N1533      H1538   1.045       .  S
N1536      H1539   1.044       .  S
N1536      H1540   1.046       .  S
C1541      C1542   1.401       .  A
C1541      C1546   1.405       .  A
C1541      H1548   1.083       .  S
C1542      C1543   1.412       .  A
C1543      C1544   1.412       .  A
C1543      N1550   1.437       .  S
C1544      C1545   1.402       .  A
C1544      H1549   1.083       .  S
C1545      C1546   1.412       .  A
C1546      N1547   1.438       .  S
N1547      H1551   1.046       .  S
N1547      H1552   1.046       .  S
N1550      H1553   1.045       .  S
N1550      H1554   1.046       .  S
C1555      C1556   1.404       .  A
C1555      C1560   1.414       .  A
C1555      H1562   1.083       .  S
C1556      C1557   1.414       .  A
C1557      C1558   1.404       .  A
C1557      N1564   1.437       .  S
C1558      C1559   1.405       .  A
C1558      H1563   1.084       .  S
C1559      C1560   1.413       .  A
C1560      N1561   1.436       .  S
N1561      H1566   1.045       .  S
N1564      H1567   1.045       .  S
N1564      H1568   1.046       .  S
C1569      C1570   1.410       .  A
C1569      C1574   1.415       .  A
C1569      H1576   1.084       .  S
C1570      C1571   1.404       .  A
C1571      C1572   1.403       .  A
C1571      N1578   1.432       .  S
C1572      C1573   1.409       .  A
C1572      H1577   1.084       .  S
C1573      C1574   1.413       .  A
C1574      N1575   1.437       .  S
N1575      H1579   1.046       .  S
N1575      H1580   1.046       .  S
N1578      H1581   1.046       .  S
N1578      H1582   1.046       .  S
C1583      C1584   1.400       .  A
C1583      C1588   1.402       .  A
C1583      H1590   1.084       .  S
C1584      C1585   1.414       .  A
C1585      C1586   1.401       .  A
C1585      N1592   1.439       .  S
C1586      C1587   1.402       .  A
C1586      H1591   1.084       .  S
C1587      C1588   1.411       .  A
C1588      N1589   1.432       .  S
N1589      H1593   1.045       .  S
N1589      H1594   1.045       .  S
N1592      H1595   1.045       .  S
N1592      H1596   1.046       .  S
C1597      C1598   1.403       .  A
C1597      C1602   1.412       .  A
C1597      H1604   1.083       .  S
C1598      C1599   1.410       .  A
C1599      C1600   1.405       .  A
C1599      N1606   1.439       .  S
C1600      C1601   1.404       .  A
C1600      H1605   1.084       .  S
C1601      C1602   1.413       .  A
C1602      N1603   1.437       .  S
N1603      H1607   1.045       .  S
N1603      H1608   1.046       .  S
N1606      H1609   1.045       .  S
N1606      H1610   1.045       .  S
C1611      C1612   1.407       .  A
C1611      C1616   1.395       .  A
C1611      H1618   1.084       .  S
C1612      C1613   1.408       .  A
C1613      C1614   1.408       .  A
C1613      N1620   1.436       .  S
C1614      C1615   1.410       .  A
C1614      H1619   1.084       .  S
C1615      C1616   1.415       .  A
C1616      N1617   1.431       .  S
N1617      H1621   1.045       .  S
N1617      H1622   1.044       .  S
N1620      H1623   1.045       .  S
N1620      H1624   1.046       .  S
C1625      C1626   1.399       .  A
C1625      C1630   1.397       .  A
C1625      H1632   1.084       .  S
C1626      C1627   1.420       .  A
C1627      C1628   1.406       .  A
C1627      N1634   1.438       .  S
C1628      C1629   1.402       .  A
C1628      H1633   1.084       .  S
C1629      C1630   1.413       .  A
C1630      N1631   1.437       .  S
N1631      H1635   1.045       .  S
N1631      H1636   1.045       .  S
N1634      H1637   1.042       .  S
N1634      H1638   1.046       .  S
C1639      C1640   1.403       .  A
C1639      C1644   1.407       .  A
C1639      H1646   1.075       .  S
C1640      C1641   1.430       .  A
C1641      C1642   1.397       .  A
C1642      C1643   1.399       .  A
C1642      H1647   1.084       .  S
C1643      C1644   1.413       .  A
C1644      N1645   1.439       .  S
N1645      H1649   1.046       .  S
N1645      H1650   1.045       .  S
N1648      H1651   1.038       .  S
C1653      C1654   1.407       .  A
C1653      C1658   1.399       .  A
C1653      H1660   1.084       .  S
C1654      C1655   1.408       .  A
C1655      C1656   1.412   1_655  A
C1655      N1662   1.436   1_655  S
C1656      C1657   1.408       .  A
C1656      H1661   1.084       .  S
C1657      C1658   1.408   1_455  A
C1658      N1659   1.433       .  S
N1659      H1663   1.044       .  S
N1659      H1664   1.046       .  S
N1662      H1665   1.045       .  S
N1662      H1666   1.046       .  S
C1667      C1668   1.404       .  A
C1667      C1672   1.400       .  A
C1667      H1674   1.084       .  S
C1668      C1669   1.408       .  A
C1669      C1670   1.402       .  A
C1669      N1676   1.438       .  S
C1670      C1671   1.408       .  A
C1670      H1675   1.083       .  S
C1671      C1672   1.410       .  A
C1672      N1673   1.433       .  S
N1673      H1677   1.046       .  S
N1673      H1678   1.045       .  S
N1676      H1679   1.046       .  S
N1676      H1680   1.045       .  S
