geometry optimzed in LAMMPS
_audit_creation_date              2020-12-01 
_audit_creation_method            'lammps2cif' 
_symmetry_space_group_name_H-M    'P1' 
_symmetry_Int_Tables_number       1 
_symmetry_cell_setting            triclinic 
loop_ 
_symmetry_equiv_pos_as_xyz 
  x,y,z 
_cell_length_a                    43.13752172 
_cell_length_b                    43.07173718911493 
_cell_length_c                    43.08274356113158 
_cell_angle_alpha                 89.68434725993804 
_cell_angle_beta                  89.65941006732852 
_cell_angle_gamma                 89.82535613429903 
loop_ 
_atom_site_label 
_atom_site_type_symbol 
_atom_site_fract_x 
_atom_site_fract_y 
_atom_site_fract_z 
_atom_site_charge 
C1          C  0.75207325  0.71217399  0.69864903     0.80800
N2          N  0.74062537  0.73894568  0.68655161    -0.77500
C3          C  0.71624068  0.75358917  0.70027051     0.83300
N4          N  0.70284974  0.74058976  0.72602744    -0.77400
C5          C  0.71403646  0.71348077  0.73818559     0.83300
N6          N  0.73884888  0.69972411  0.72442929    -0.79200
C7          C  0.24984625  0.70745717  0.29020113     0.80800
N8          N  0.26221992  0.69410257  0.26431204    -0.77500
C9          C  0.28901779  0.70523647  0.25166483     0.83300
N10         N  0.30331440  0.72981131  0.26500350    -0.77400
C11         C  0.29111855  0.74316247  0.29078413     0.83300
N12         N  0.26455710  0.73182820  0.30336990    -0.79200
C13         C  0.70294350  0.25311213  0.70432450     0.80800
N14         N  0.69213894  0.26687540  0.73048262    -0.77500
C15         C  0.70703073  0.29166424  0.74262059     0.83300
N16         N  0.73296026  0.30265206  0.72846878    -0.77400
C17         C  0.74408201  0.28898046  0.70234565     0.83300
N18         N  0.72890813  0.26426904  0.69016456    -0.79200
C19         C  0.28440711  0.25343323  0.71689253     0.80800
N20         N  0.29538357  0.26843183  0.74232054    -0.77500
C21         C  0.28077416  0.29434840  0.75319203     0.83300
N22         N  0.25518331  0.30535167  0.73835229    -0.77400
C23         C  0.24419968  0.29052831  0.71288746     0.83300
N24         N  0.25895506  0.26479620  0.70221624    -0.79200
C25         C  0.23891673  0.70221589  0.71161211     0.80800
N26         N  0.25266880  0.69202570  0.73813060    -0.77500
C27         C  0.27730258  0.70745805  0.75016695     0.83300
N28         N  0.28773945  0.73347646  0.73551082    -0.77400
C29         C  0.27422061  0.74406711  0.70903410     0.83300
N30         N  0.24995509  0.72806760  0.69706882    -0.79200
C31         C  0.70621034  0.24177008  0.28573901     0.80800
N32         N  0.73139663  0.25473021  0.29923024    -0.77500
C33         C  0.74497708  0.28015812  0.28631940     0.83300
N34         N  0.73292267  0.29286808  0.26005315    -0.77400
C35         C  0.70768446  0.28008081  0.24640148     0.83300
N36         N  0.69436434  0.25452413  0.25943636    -0.79200
O37         O  0.53258901  0.46344779  0.08481820    -0.72400
O38         O  0.47601912  0.54125150  0.08468231    -0.73300
O39         O  0.46590805  0.47403456  0.08564630    -0.62000
O40         O  0.54344943  0.53080187  0.08286882    -0.70400
O41         O  0.54229363  0.52560435  0.03188172    -0.69900
O42         O  0.46533799  0.47869338  0.03453143    -0.61200
O43         O  0.47993817  0.54095753  0.03350285    -0.73700
O44         O  0.52730133  0.46326735  0.03381826    -0.72500
Cu45       Cu  0.50457203  0.50249314  0.08678222     1.04600
Cu46       Cu  0.50373045  0.50215802  0.03216154     1.04300
C47         C  0.53807059  0.45084763  0.05842828     0.93800
C48         C  0.46912222  0.55312608  0.05820463     0.93000
C49         C  0.45368120  0.46755362  0.05935389     0.85100
C50         C  0.55503415  0.53670428  0.05590555     0.91400
C51         C  0.40182888  0.39688775  0.06962685     0.03700
C52         C  0.39856727  0.38938548  0.03780240    -0.12400
C53         C  0.40781524  0.41091015  0.01508065     0.01200
C54         C  0.41780012  0.44020824  0.02483938    -0.11000
C55         C  0.42796459  0.44495603  0.05526122     0.03700
C56         C  0.41844800  0.42380687  0.07816118    -0.10400
H57         H  0.38935183  0.36708136  0.03102734     0.09300
H58         H  0.42301459  0.45749680  0.00717728     0.06800
H59         H  0.42415342  0.42795653  0.10222665     0.06700
C60         C  0.39915019  0.60687027  0.06823983     0.03700
C61         C  0.42556091  0.58920570  0.07688035    -0.12400
C62         C  0.44662025  0.57922940  0.05400247     0.01200
C63         C  0.44205662  0.58965120  0.02354216    -0.11000
C64         C  0.41290584  0.60013217  0.01371255     0.03700
C65         C  0.39173096  0.61036688  0.03636804    -0.10400
H66         H  0.42931891  0.58307316  0.10098576     0.09300
H67         H  0.45918801  0.58400359  0.00590647     0.06800
H68         H  0.36964429  0.62018077  0.02952835     0.06700
C69         C  0.60478525  0.39305815  0.06694980     0.03700
C70         C  0.57929222  0.41177249  0.07639840    -0.12400
C71         C  0.55861669  0.42326466  0.05407434     0.01200
C72         C  0.56183960  0.41245920  0.02372723    -0.11000
C73         C  0.59075455  0.40227797  0.01288463     0.03700
C74         C  0.61196312  0.39072553  0.03479063    -0.10400
H75         H  0.57580930  0.41741821  0.10063438     0.09300
H76         H  0.54432112  0.41850730  0.00675182     0.06800
H77         H  0.63374359  0.38066448  0.02721122     0.06700
C78         C  0.61005965  0.60527128  0.06242978     0.03700
C79         C  0.59239401  0.57935811  0.07220246    -0.12400
C80         C  0.58148192  0.55832244  0.05022414     0.01200
C81         C  0.59126977  0.56222317  0.01935840    -0.11000
C82         C  0.60183973  0.59115895  0.00845148     0.03700
C83         C  0.61284147  0.61244294  0.03036425    -0.10400
H84         H  0.58670354  0.57617979  0.09654672     0.09300
H85         H  0.58487847  0.54493649  0.00235436     0.06800
H86         H  0.62256038  0.63439948  0.02284952     0.06700
O87         O  0.46259411  0.53129523  0.90744137    -0.72400
O88         O  0.53968127  0.47321011  0.90790170    -0.73300
O89         O  0.47239914  0.46373293  0.90800487    -0.62000
O90         O  0.52993836  0.54037370  0.90644278    -0.70400
O91         O  0.52563360  0.54093765  0.95760262    -0.69900
O92         O  0.47707513  0.46430895  0.95906448    -0.61200
O93         O  0.53945285  0.47851664  0.95890069    -0.73700
O94         O  0.46327337  0.52690424  0.95854971    -0.72500
Cu95       Cu  0.50112626  0.50214107  0.90517021     1.04600
Cu96       Cu  0.50132858  0.50269014  0.95980232     1.04300
C97         C  0.45091514  0.53791802  0.93412181     0.93800
C98         C  0.55161890  0.46714440  0.93453549     0.93000
C99         C  0.46618296  0.45184944  0.93469326     0.85100
C100        C  0.53666124  0.55257318  0.93264527     0.91400
C101        C  0.39693216  0.39716558  0.92841220     0.03700
C102        C  0.42248488  0.41529243  0.91814416    -0.12400
C103        C  0.44480356  0.42503504  0.93963174     0.01200
C104        C  0.44256607  0.41362580  0.97001604    -0.11000
C105        C  0.41415054  0.40315845  0.98185021     0.03700
C106        C  0.39164481  0.39315728  0.96071693    -0.10400
H107        H  0.42446255  0.42216664  0.89400431     0.09300
H108        H  0.46071976  0.41907199  0.98643212     0.06800
H109        H  0.37003581  0.38338515  0.96909543     0.06700
C110        C  0.39658510  0.60777161  0.92679066     0.03700
C111        C  0.41415542  0.58162898  0.91707276    -0.12400
C112        C  0.42475548  0.56014383  0.93920534     0.01200
C113        C  0.41482700  0.56389466  0.96998187    -0.11000
C114        C  0.40481494  0.59286806  0.98079505     0.03700
C115        C  0.39409883  0.61458659  0.95891880    -0.10400
H116        H  0.41953201  0.57825354  0.89272994     0.09300
H117        H  0.42065072  0.54626931  0.98707951     0.06800
H118        H  0.38439985  0.63649908  0.96653213     0.06700
C119        C  0.60777161  0.39916917  0.92575307     0.03700
C120        C  0.61035123  0.39095497  0.95754878    -0.12400
C121        C  0.59845135  0.41119826  0.98009041     0.01200
C122        C  0.58733780  0.44025561  0.97018348    -0.11000
C123        C  0.57781649  0.44505476  0.93950241     0.03700
C124        C  0.58930383  0.42488769  0.91684440    -0.10400
H125        H  0.62105978  0.36923085  0.96440982     0.09300
H126        H  0.58078219  0.45702312  0.98773771     0.06800
H127        H  0.58402101  0.42894461  0.89259283     0.06700
C128        C  0.60574572  0.60680480  0.92068604     0.03700
C129        C  0.57975847  0.58834686  0.91291561    -0.12400
C130        C  0.55914928  0.57849197  0.93621742     0.01200
C131        C  0.56397396  0.58914701  0.96636006    -0.11000
C132        C  0.59332323  0.59917555  0.97564126     0.03700
C133        C  0.61388458  0.61000025  0.95249412    -0.10400
H134        H  0.57569245  0.58198323  0.88900347     0.09300
H135        H  0.54702671  0.58371764  0.98427824     0.06800
H136        H  0.63569114  0.62042293  0.95899225     0.06700
O137        O  0.51664142  0.08652938  0.46291561    -0.72400
O138        O  0.44805971  0.08921225  0.53112734    -0.73300
O139        O  0.51705591  0.08914671  0.53114336    -0.62000
O140        O  0.44916162  0.08704694  0.46408128    -0.70400
O141        O  0.45063983  0.03592306  0.46953230    -0.69900
O142        O  0.51586058  0.03784275  0.53079291    -0.61200
O143        O  0.45157119  0.03796658  0.53240579    -0.73700
O144        O  0.51406137  0.03542401  0.46689881    -0.72500
Cu145      Cu  0.48287050  0.09027579  0.49738562     1.04600
Cu146      Cu  0.48314673  0.03553696  0.50006515     1.04300
C147        C  0.52524701  0.05946921  0.45377936     0.93800
C148        C  0.43814332  0.06282889  0.54103815     0.93000
C149        C  0.52741286  0.06290503  0.54097897     0.85100
C150        C  0.43908040  0.06006547  0.45700262     0.91400
C151        C  0.39522349  0.06086590  0.38150163     0.03700
C152        C  0.39152680  0.02818603  0.37907688    -0.12400
C153        C  0.39753596  0.00956488  0.40538827     0.01200
C154        C  0.40221132  0.02466359  0.43356444    -0.11000
C155        C  0.41507047  0.05435164  0.43350462     0.03700
C156        C  0.41026884  0.07329884  0.40761350    -0.10400
H157        H  0.38397034  0.01781635  0.35758450     0.09300
H158        H  0.40353458  0.01067520  0.45455909     0.06800
H159        H  0.41709832  0.09748182  0.40803771     0.06700
C160        C  0.59410917  0.06740042  0.39762022     0.03700
C161        C  0.56845239  0.07646142  0.41618435    -0.12400
C162        C  0.54891445  0.05379501  0.42898852     0.01200
C163        C  0.55420691  0.02284248  0.42069820    -0.11000
C164        C  0.58283136  0.01294839  0.40865088     0.03700
C165        C  0.60254478  0.03554775  0.39562787    -0.10400
H166        H  0.56390067  0.10081680  0.42046176     0.09300
H167        H  0.53774668  0.00524732  0.42802009     0.06800
H168        H  0.62406183  0.02871107  0.38451510     0.06700
C169        C  0.38172098  0.06851548  0.60958518     0.03700
C170        C  0.37549016  0.03619943  0.61253904    -0.12400
C171        C  0.38472656  0.01593371  0.58867659     0.01200
C172        C  0.39701937  0.02915410  0.56148943    -0.11000
C173        C  0.41084887  0.05849614  0.56201923     0.03700
C174        C  0.40156389  0.07909955  0.58534699    -0.10400
H175        H  0.36432747  0.02713736  0.63324870     0.08500
H176        H  0.40189571  0.01394980  0.54203369     0.06800
H177        H  0.40979133  0.10283063  0.58491191     0.06700
C178        C  0.58424608  0.07647606  0.60766452     0.03700
C179        C  0.56351502  0.08340368  0.58322701    -0.12400
C180        C  0.55229579  0.05939736  0.56463551     0.01200
C181        C  0.56337996  0.02928898  0.57008884    -0.11000
C182        C  0.57956692  0.02113891  0.59707099     0.03700
C183        C  0.59114145  0.04517090  0.61549778    -0.10400
H184        H  0.55677652  0.10720091  0.57851722     0.09300
H185        H  0.55705925  0.01094193  0.55427817     0.06800
H186        H  0.60525993  0.03979675  0.63553595     0.06700
O187        O  0.52313321  0.96026816  0.54553517    -0.72400
O188        O  0.46969367  0.95917264  0.47274682    -0.73300
O189        O  0.46053016  0.95982535  0.53662014    -0.62000
O190        O  0.53304363  0.95942595  0.48231518    -0.70400
O191        O  0.53447703  0.90816537  0.48009547    -0.69900
O192        O  0.46001204  0.90870898  0.54146828    -0.61200
O193        O  0.46686843  0.90794371  0.47310181    -0.73700
O194        O  0.52724584  0.90910444  0.54778542    -0.72500
Cu195      Cu  0.49656884  0.96094876  0.50921715     1.04600
Cu196      Cu  0.49712196  0.90621960  0.51058260     1.04300
C197        C  0.53389765  0.93598432  0.55856045     0.93800
C198        C  0.45925741  0.93424430  0.46106090     0.93000
C199        C  0.44926786  0.93545474  0.54909635     0.85100
C200        C  0.54556469  0.93468386  0.47210247     0.91400
C201        C  0.39583899  0.92087262  0.40033515     0.03700
C202        C  0.41911827  0.91398691  0.42245790    -0.12400
C203        C  0.43749608  0.93786423  0.43433991     0.01200
C204        C  0.43295411  0.96788379  0.42251810    -0.11000
C205        C  0.40665315  0.97601648  0.40507532     0.03700
C206        C  0.38857832  0.95211057  0.39288709    -0.10400
H207        H  0.42294572  0.89025580  0.42996360     0.09300
H208        H  0.44829896  0.98629812  0.42983653     0.06800
H209        H  0.36911289  0.95759821  0.37805365     0.06700
C210        C  0.59872123  0.92560893  0.40174239     0.03700
C211        C  0.60166681  0.95771035  0.39438191    -0.12400
C212        C  0.59163020  0.97996082  0.41607346     0.01200
C213        C  0.58242093  0.96928533  0.44549645    -0.11000
C214        C  0.57155093  0.93895285  0.44954205     0.03700
C215        C  0.58125469  0.91648194  0.42817951    -0.10400
H216        H  0.61104338  0.96498294  0.37214058     0.09300
H217        H  0.57738700  0.98639046  0.46323127     0.06800
H218        H  0.57530774  0.89232093  0.43188432     0.06700
C219        C  0.37546080  0.92721149  0.59893688     0.03700
C220        C  0.36853570  0.95943397  0.60213534    -0.12400
C221        C  0.39047148  0.98171819  0.59265392     0.01200
C222        C  0.41923790  0.97107982  0.58186771    -0.11000
C223        C  0.42372463  0.94054347  0.57205895     0.03700
C224        C  0.40244114  0.91807720  0.58213778    -0.10400
H225        H  0.34655149  0.96685034  0.61189091     0.09300
H226        H  0.43723454  0.98805456  0.57729944     0.06800
H227        H  0.40690462  0.89383760  0.57725658     0.06700
C228        C  0.60687137  0.93717549  0.60669448     0.03700
C229        C  0.60718670  0.96987765  0.61116260    -0.12400
C230        C  0.58010735  0.98724774  0.60527415     0.01200
C231        C  0.55294297  0.97086495  0.59867971    -0.11000
C232        C  0.55494536  0.94148918  0.58516482     0.03700
C233        C  0.58143226  0.92363631  0.59110699    -0.10400
H234        H  0.62818769  0.98141319  0.61838683     0.09300
H235        H  0.53149247  0.98388342  0.59625458     0.06800
H236        H  0.58252055  0.89981343  0.58324075     0.06700
C237        C  0.70072372  0.70916720  0.24956075     0.80800
N238        N  0.68884394  0.73431980  0.26431925    -0.77500
C239        C  0.70290363  0.74585139  0.28995131     0.83300
N240        N  0.72896711  0.73168106  0.30078636    -0.77400
C241        C  0.74079310  0.70620851  0.28633492     0.83300
N242        N  0.72663913  0.69512618  0.26061128    -0.79200
O243        O  0.08345800  0.53386262  0.51913927    -0.72400
O244        O  0.08394932  0.45861315  0.45987345    -0.73300
O245        O  0.08324958  0.52627915  0.45155951    -0.62000
O246        O  0.08375974  0.46679378  0.52760037    -0.70400
O247        O  0.03273965  0.47147918  0.52757830    -0.69900
O248        O  0.03231911  0.52081143  0.45153512    -0.61200
O249        O  0.03293150  0.45816408  0.46488385    -0.73700
O250        O  0.03248563  0.53398855  0.51413364    -0.72500
Cu251      Cu  0.08589266  0.49637558  0.48945930     1.04600
Cu252      Cu  0.03135529  0.49609110  0.48951111     1.04300
C253        C  0.05686850  0.54549588  0.52591262     0.93800
C254        C  0.05758956  0.44657110  0.45336720     0.93000
C255        C  0.05667943  0.53267179  0.43975381     0.85100
C256        C  0.05723809  0.46040400  0.53971261     0.91400
C257        C  0.06850714  0.39253822  0.38404027     0.03700
C258        C  0.07661748  0.41033665  0.41033620    -0.12400
C259        C  0.05341093  0.42093487  0.43061593     0.01200
C260        C  0.02299105  0.41108224  0.42548340    -0.11000
C261        C  0.01374803  0.40012199  0.39640123     0.03700
C262        C  0.03681260  0.38936322  0.37592511    -0.10400
H263        H  0.10066251  0.41586003  0.41479952     0.09300
H264        H  0.00504843  0.41709907  0.44215308     0.06800
H265        H  0.03043116  0.37917356  0.35395898     0.06700
C266        C  0.06385526  0.60572438  0.39035383     0.03700
C267        C  0.03174965  0.61258784  0.38819541    -0.12400
C268        C  0.01005963  0.58991991  0.39706668     0.01200
C269        C  0.02115548  0.56015032  0.40448857    -0.11000
C270        C  0.05172975  0.55590688  0.41445904     0.03700
C271        C  0.07363342  0.57828027  0.40574193    -0.10400
H272        H  0.02402284  0.63530090  0.38052100     0.09300
H273        H  0.00430250  0.54201540  0.40901455     0.06800
H274        H  0.09786654  0.57476987  0.41125638     0.06700
C275        C  0.06770730  0.39337436  0.59733145     0.03700
C276        C  0.03623519  0.38387962  0.59896448    -0.12400
C277        C  0.01323793  0.40282492  0.58579094     0.01200
C278        C  0.02193078  0.43224751  0.57488897    -0.11000
C279        C  0.05262463  0.43832456  0.56614682     0.03700
C280        C  0.07591446  0.41935951  0.57869605    -0.10400
H281        H  0.02998086  0.36191194  0.60957969     0.09300
H282        H  0.00370185  0.44799433  0.56752231     0.06800
H283        H  0.10005671  0.42432792  0.57379984     0.06700
C284        C  0.06487719  0.59275938  0.59975703     0.03700
C285        C  0.07436034  0.57857786  0.57161582    -0.12400
C286        C  0.05201826  0.57001069  0.54973629     0.01200
C287        C  0.02129236  0.57899327  0.55518079    -0.11000
C288        C  0.01094201  0.58492920  0.58539683     0.03700
C289        C  0.03290890  0.59352502  0.60764815    -0.10400
H290        H  0.09866532  0.57393940  0.56712798     0.09300
H291        H  0.00398042  0.57465524  0.53756566     0.06800
H292        H  0.02549791  0.60014799  0.63074635     0.06700
O293        O  0.90891393  0.46454027  0.44913850    -0.72400
O294        O  0.90905582  0.51538971  0.52987240    -0.73300
O295        O  0.90792828  0.53060312  0.46395801    -0.62000
O296        O  0.91001574  0.44952846  0.51518387    -0.70400
O297        O  0.96097793  0.45018174  0.50922327    -0.69900
O298        O  0.95900621  0.53108379  0.46804311    -0.61200
O299        O  0.96016905  0.51111244  0.52903500    -0.73700
O300        O  0.95985795  0.47024735  0.44822686    -0.72500
Cu301      Cu  0.90672423  0.48996168  0.48954552     1.04600
Cu302      Cu  0.96131990  0.49066413  0.48858070     1.04300
C303        C  0.93527070  0.45966992  0.43604538     0.93800
C304        C  0.93551469  0.52100524  0.54206569     0.93000
C305        C  0.93409894  0.54364733  0.45838277     0.85100
C306        C  0.93671495  0.43732169  0.52017429     0.91400
C307        C  0.92693349  0.39095850  0.38260027     0.03700
C308        C  0.95906361  0.38457006  0.37882478    -0.12400
C309        C  0.98085046  0.40703854  0.38772298     0.01200
C310        C  0.96969982  0.43622037  0.39693929    -0.11000
C311        C  0.93951591  0.43927369  0.40860053     0.03700
C312        C  0.91750645  0.41738743  0.39958819    -0.10400
H313        H  0.96675861  0.36232471  0.37002577     0.09300
H314        H  0.98648888  0.45419024  0.40197400     0.06800
H315        H  0.89346256  0.42036032  0.40636918     0.06700
C316        C  0.92249863  0.60373567  0.39431946     0.03700
C317        C  0.91460000  0.58320606  0.41888037    -0.12400
C318        C  0.93770090  0.57186651  0.43864183     0.01200
C319        C  0.96779219  0.58332348  0.43482727    -0.11000
C320        C  0.97723771  0.59651697  0.40653713     0.03700
C321        C  0.95426975  0.60862223  0.38685101    -0.10400
H322        H  0.89079857  0.57579223  0.42206231     0.09300
H323        H  0.98558721  0.57633087  0.45114735     0.06800
H324        H  0.96088722  0.62087157  0.36584716     0.06700
C325        C  0.92742322  0.38176364  0.58813159     0.03700
C326        C  0.95912672  0.38025803  0.59672100    -0.12400
C327        C  0.98172967  0.39206725  0.57628424     0.01200
C328        C  0.97228186  0.40119957  0.54649235    -0.11000
C329        C  0.94160496  0.41037229  0.54131672     0.03700
C330        C  0.91878557  0.39926942  0.56167367    -0.10400
H331        H  0.96587982  0.37087374  0.61905153     0.09300
H332        H  0.99002599  0.40786470  0.52981529     0.06800
H333        H  0.89460698  0.40466873  0.55752463     0.06700
C334        C  0.92395804  0.58647153  0.59967144     0.03700
C335        C  0.95547202  0.59433669  0.60400779    -0.12400
C336        C  0.97870356  0.57459391  0.59263679     0.01200
C337        C  0.96987189  0.54605401  0.57990717    -0.11000
C338        C  0.93953025  0.54132022  0.56956300     0.03700
C339        C  0.91616107  0.56098719  0.58076314    -0.10400
H340        H  0.96167543  0.61598915  0.61500468     0.09300
H341        H  0.98805195  0.53022341  0.57254130     0.06800
H342        H  0.89228855  0.55732908  0.57405328     0.06700
C343        C  0.29539087  0.28785190  0.24906298     0.80800
N344        N  0.26891607  0.30028371  0.26103202    -0.77500
C345        C  0.25450983  0.28672998  0.28577273     0.83300
N346        N  0.26668248  0.26042506  0.29844888    -0.77400
C347        C  0.29307217  0.24790793  0.28650383     0.83300
N348        N  0.30735830  0.26169358  0.26200317    -0.79200
C349        C  0.17401381  0.32313962  0.29257374    -0.04900
C350        C  0.17280940  0.33068861  0.32437649     0.09300
C351        C  0.19799933  0.32292821  0.34369617    -0.02300
C352        C  0.22443506  0.30801684  0.33125075    -0.00500
C353        C  0.22602881  0.30105718  0.29921878    -0.04100
C354        C  0.20054112  0.30846567  0.27998754     0.02900
C355        C  0.14485396  0.34661961  0.33772370     0.09700
C356        C  0.19674027  0.33059302  0.37642347     0.35600
C357        C  0.20113425  0.30006442  0.24742322     0.39000
C358        C  0.12133579  0.32905531  0.35232224    -0.04500
C359        C  0.09574603  0.34407378  0.36630421     0.02700
C360        C  0.09341237  0.37684822  0.36570394    -0.04100
C361        C  0.11654111  0.39435285  0.35022484    -0.00300
C362        C  0.14232799  0.37928850  0.33657125    -0.02900
C363        C  0.12405307  0.29550386  0.35376126     0.36400
C364        C  0.11373315  0.42786201  0.34824467     0.40000
C365        C  0.07247835  0.32579313  0.38250524     0.39100
C366        C  0.16685409  0.39738835  0.32218763     0.36000
C367        C  0.14774539  0.33026934  0.27290403     0.36700
C368        C  0.25031112  0.30063660  0.35137391     0.40000
N369        N  0.05389792  0.31125622  0.39544859    -0.38100
N370        N  0.12637909  0.26875258  0.35499691    -0.39700
N371        N  0.11144582  0.45459761  0.34658673    -0.37400
N372        N  0.18658926  0.41173283  0.31086716    -0.39800
N373        N  0.19568043  0.33673549  0.40252413    -0.39600
N374        N  0.27088326  0.29465852  0.36748062    -0.37200
N375        N  0.20160747  0.29327023  0.22147040    -0.38300
N376        N  0.12672474  0.33592344  0.25727240    -0.39900
C377        C  0.79412164  0.64366686  0.31953047    -0.04900
C378        C  0.82127170  0.66084150  0.32527889     0.09300
C379        C  0.82255629  0.69247411  0.31669419    -0.02300
C380        C  0.79639467  0.70723639  0.30366345    -0.00500
C381        C  0.76880702  0.69035144  0.29881211    -0.04100
C382        C  0.76798247  0.65831982  0.30628537     0.02900
C383        C  0.84767062  0.64628998  0.34258727     0.09700
C384        C  0.85088795  0.70980863  0.32145190     0.35600
C385        C  0.73980712  0.64066926  0.30164232     0.39000
C386        C  0.86966898  0.62749719  0.32714603    -0.04500
C387        C  0.89422166  0.61360373  0.34385100     0.02700
C388        C  0.89718837  0.61882278  0.37608743    -0.04100
C389        C  0.87517461  0.63793449  0.39140987    -0.00300
C390        C  0.85045436  0.65136660  0.37475793    -0.02900
C391        C  0.86689745  0.62239095  0.29405593     0.36400
C392        C  0.87807313  0.64418983  0.42434540     0.40000
C393        C  0.91578008  0.59311076  0.32803249     0.39100
C394        C  0.82758751  0.67032081  0.39075475     0.36000
C395        C  0.79293750  0.61102483  0.32790888     0.36700
C396        C  0.79807831  0.73971508  0.29475783     0.40000
N397        N  0.93306272  0.57675690  0.31550777    -0.38100
N398        N  0.86467919  0.61830224  0.26763954    -0.39700
N399        N  0.88024264  0.64914197  0.45062022    -0.37400
N400        N  0.80927305  0.68543755  0.40337567    -0.39800
N401        N  0.87356689  0.72352720  0.32522516    -0.39600
N402        N  0.79938835  0.76562351  0.28762505    -0.37200
N403        N  0.71732457  0.62659979  0.29795133    -0.38300
N404        N  0.79210367  0.58496407  0.33453506    -0.39900
C405        C  0.61226576  0.85449667  0.35082738    -0.04900
C406        C  0.64490285  0.85169589  0.35184516     0.09300
C407        C  0.66227186  0.87393524  0.36820466    -0.02300
C408        C  0.64708739  0.89817900  0.38420346    -0.00500
C409        C  0.61449164  0.90137009  0.38270236    -0.04100
C410        C  0.59717100  0.87958269  0.36565719     0.02900
C411        C  0.66092304  0.82500782  0.33606447     0.09700
C412        C  0.69581244  0.87161038  0.36888519     0.35600
C413        C  0.56379935  0.88293094  0.36346721     0.39000
C414        C  0.66402845  0.82465593  0.30345479    -0.04500
C415        C  0.67825223  0.79918985  0.28847119     0.02700
C416        C  0.68957670  0.77363867  0.30600236    -0.04100
C417        C  0.68722099  0.77451973  0.33883528    -0.00300
C418        C  0.67276856  0.79996295  0.35369563    -0.02900
C419        C  0.65252813  0.85066449  0.28529107     0.36400
C420        C  0.69874077  0.74888766  0.35752713     0.40000
C421        C  0.68196069  0.79988004  0.25496754     0.39100
C422        C  0.66945553  0.80011470  0.38723027     0.36000
C423        C  0.59419010  0.83096932  0.33525751     0.36700
C424        C  0.66486408  0.91880090  0.40374392     0.40000
N425        N  0.68489388  0.80042990  0.22824796    -0.38100
N426        N  0.64323147  0.87138517  0.27084836    -0.39700
N427        N  0.70806961  0.72854837  0.37249273    -0.37400
N428        N  0.66682932  0.80029325  0.41397722    -0.39800
N429        N  0.72257255  0.86974364  0.36941801    -0.39600
N430        N  0.67888758  0.93504757  0.41967213    -0.37200
N431        N  0.53717287  0.88563921  0.36163373    -0.38300
N432        N  0.57988556  0.81202743  0.32294970    -0.39900
C433        C  0.31229241  0.16274776  0.29833608    -0.04900
C434        C  0.33464071  0.16432886  0.32203966     0.09300
C435        C  0.34238576  0.19333479  0.33495412    -0.02300
C436        C  0.32835731  0.22073013  0.32366750    -0.00500
C437        C  0.30631079  0.21914035  0.29970084    -0.04100
C438        C  0.29817940  0.19012934  0.28714542     0.02900
C439        C  0.34916364  0.13528042  0.33436146     0.09700
C440        C  0.36454716  0.19486298  0.36008390     0.35600
C441        C  0.27535457  0.18853334  0.26262740     0.39000
C442        C  0.37882386  0.12579634  0.32395911    -0.04500
C443        C  0.39342475  0.09970098  0.33758418     0.02700
C444        C  0.37817241  0.08291409  0.36134034    -0.04100
C445        C  0.34792273  0.09165447  0.37064513    -0.00300
C446        C  0.33359884  0.11789610  0.35741160    -0.02900
C447        C  0.39464963  0.14365037  0.30007437     0.36400
C448        C  0.33234702  0.07472094  0.39543243     0.40000
C449        C  0.42440718  0.09072327  0.32794019     0.39100
C450        C  0.30350555  0.12804744  0.36871307     0.36000
C451        C  0.30378674  0.13287648  0.28563629     0.36700
C452        C  0.33675195  0.25059759  0.33649131     0.40000
N453        N  0.44912910  0.08361267  0.32011886    -0.38100
N454        N  0.40717509  0.15808346  0.28107760    -0.39700
N455        N  0.32021365  0.06116421  0.41530808    -0.37400
N456        N  0.27960022  0.13625546  0.37788566    -0.39800
N457        N  0.38216760  0.19600975  0.38019340    -0.39600
N458        N  0.34345913  0.27444871  0.34666209    -0.37200
N459        N  0.25711748  0.18732655  0.24308346    -0.38300
N460        N  0.29698289  0.10897288  0.27566048    -0.39900
C461        C  0.66425059  0.63107517  0.12622451    -0.04900
C462        C  0.64895778  0.65784939  0.13729447     0.09300
C463        C  0.62207069  0.66878398  0.12216648    -0.02300
C464        C  0.60990283  0.65233858  0.09673624    -0.00500
C465        C  0.62465189  0.62498988  0.08635639    -0.04100
C466        C  0.65212800  0.61467654  0.10085698     0.02900
C467        C  0.66045963  0.67331419  0.16600146     0.09700
C468        C  0.60661156  0.69653892  0.13326831     0.35600
C469        C  0.66755686  0.58672696  0.09006312     0.39000
C470        C  0.68514817  0.69468051  0.16425804    -0.04500
C471        C  0.69786302  0.70693218  0.19166789     0.02700
C472        C  0.68611589  0.69765665  0.22090287    -0.04100
C473        C  0.66100597  0.67681858  0.22266003    -0.00300
C474        C  0.64811771  0.66475755  0.19524479    -0.02900
C475        C  0.69780896  0.70352430  0.13425450     0.36400
C476        C  0.64899379  0.66719261  0.25270509     0.40000
C477        C  0.72322084  0.72892190  0.18989391     0.39100
C478        C  0.62261449  0.64294012  0.19703606     0.36000
C479        C  0.69203466  0.61996617  0.14158269     0.36700
C480        C  0.58161970  0.66282294  0.08193762     0.40000
N481        N  0.74341817  0.74651435  0.18862825    -0.38100
N482        N  0.70795107  0.71049113  0.11029326    -0.39700
N483        N  0.63947230  0.65944812  0.27668507    -0.37400
N484        N  0.60223913  0.62555442  0.19830689    -0.39800
N485        N  0.59426723  0.71868879  0.14216371    -0.39600
N486        N  0.55902232  0.67104136  0.07005973    -0.37200
N487        N  0.67983081  0.56440835  0.08148943    -0.38300
N488        N  0.71418330  0.61122251  0.15392976    -0.39900
C489        C  0.34060140  0.35820796  0.12034487    -0.04900
C490        C  0.35883201  0.34540980  0.14427462     0.09300
C491        C  0.39142983  0.34742830  0.14261122    -0.02300
C492        C  0.40574799  0.36308819  0.11751867    -0.00500
C493        C  0.38743580  0.37706757  0.09413305    -0.04100
C494        C  0.35479003  0.37413402  0.09544208     0.02900
C495        C  0.34339299  0.33047390  0.17162622     0.09700
C496        C  0.41012667  0.33373458  0.16700302     0.35600
C497        C  0.33560463  0.38864583  0.07187170     0.39000
C498        C  0.33845968  0.29817267  0.17214807    -0.04500
C499        C  0.32227223  0.28431947  0.19712163     0.02700
C500        C  0.31143845  0.30269332  0.22216126    -0.04100
C501        C  0.31679345  0.33511334  0.22167527    -0.00300
C502        C  0.33256003  0.34891631  0.19638896    -0.02900
C503        C  0.34993802  0.27926288  0.14677068     0.36400
C504        C  0.30698567  0.35428050  0.24755034     0.40000
C505        C  0.31582136  0.25128587  0.19631668     0.39100
C506        C  0.33779455  0.38217841  0.19578110     0.36000
C507        C  0.30710928  0.35538870  0.12172345     0.36700
C508        C  0.43929636  0.36468541  0.11570397     0.40000
N509        N  0.31064987  0.22495052  0.19558311    -0.38100
N510        N  0.35925016  0.26423110  0.12656007    -0.39700
N511        N  0.29918023  0.36960002  0.26817226    -0.37400
N512        N  0.34198332  0.40870179  0.19518203    -0.39800
N513        N  0.42498200  0.32276407  0.18649457    -0.39600
N514        N  0.46606035  0.36601219  0.11426419    -0.37200
N515        N  0.32033728  0.40020642  0.05304618    -0.38300
N516        N  0.28040767  0.35308031  0.12290183    -0.39900
C517        C  0.82546906  0.29282779  0.31990751    -0.04900
C518        C  0.82346572  0.32404520  0.32947824     0.09300
C519        C  0.79538619  0.34052186  0.32577251    -0.02300
C520        C  0.76965721  0.32606699  0.31190041    -0.00500
C521        C  0.77183080  0.29499301  0.30170073    -0.04100
C522        C  0.79967154  0.27824385  0.30628038     0.02900
C523        C  0.85111200  0.33964891  0.34326677     0.09700
C524        C  0.79299999  0.37234790  0.33636298     0.35600
C525        C  0.80199643  0.24616077  0.29647627     0.39000
C526        C  0.87348736  0.35365676  0.32375615    -0.04500
C527        C  0.89924474  0.36892189  0.33665731     0.02700
C528        C  0.90275029  0.37040325  0.36923507    -0.04100
C529        C  0.88075928  0.35555521  0.38871873    -0.00300
C530        C  0.85491842  0.34044369  0.37575672    -0.02900
C531        C  0.86939172  0.35319656  0.29036933     0.36400
C532        C  0.88472555  0.35584242  0.42213041     0.40000
C533        C  0.92142558  0.38430633  0.31637660     0.39100
C534        C  0.83175997  0.32631540  0.39581439     0.36000
C535        C  0.85424728  0.27584348  0.32400294     0.36700
C536        C  0.74055319  0.34280801  0.30913634     0.40000
N537        N  0.93917356  0.39657143  0.30026036    -0.38100
N538        N  0.86602278  0.35290925  0.26374422    -0.39700
N539        N  0.88790756  0.35609390  0.44878368    -0.37400
N540        N  0.81312119  0.31518318  0.41173817    -0.39800
N541        N  0.79106735  0.39770899  0.34491085    -0.39600
N542        N  0.71723676  0.35599373  0.30702654    -0.37200
N543        N  0.80382546  0.22051861  0.28877444    -0.38300
N544        N  0.87730579  0.26246109  0.32730350    -0.39900
C545        C  0.64836872  0.31816877  0.19273163    -0.04900
C546        C  0.66700880  0.32660916  0.16703790     0.09300
C547        C  0.69879293  0.31882285  0.16688758    -0.02300
C548        C  0.71207922  0.30334819  0.19261171    -0.00500
C549        C  0.69354735  0.29525625  0.21864358    -0.04100
C550        C  0.66150029  0.30250548  0.21838785     0.02900
C551        C  0.65303263  0.34377607  0.14010721     0.09700
C552        C  0.71771448  0.32657638  0.14003073     0.35600
C553        C  0.64209339  0.29481741  0.24495207     0.39000
C554        C  0.65288354  0.37654224  0.13947295    -0.04500
C555        C  0.63855857  0.39274535  0.11478497     0.02700
C556        C  0.62366629  0.37628619  0.09079861    -0.04100
C557        C  0.62459691  0.34339051  0.09110553    -0.00300
C558        C  0.63934125  0.32727012  0.11558860    -0.02900
C559        C  0.66700555  0.39354866  0.16463697     0.36400
C560        C  0.60931301  0.32597096  0.06689948     0.40000
C561        C  0.63942703  0.42639430  0.11390810     0.39100
C562        C  0.63993399  0.29359248  0.11599129     0.36000
C563        C  0.61560710  0.32585408  0.19279652     0.36700
C564        C  0.74468080  0.29501935  0.19184537     0.40000
N565        N  0.64009369  0.45324611  0.11312863    -0.38100
N566        N  0.67820360  0.40705521  0.18480649    -0.39700
N567        N  0.59717215  0.31202124  0.04759604    -0.37400
N568        N  0.64048094  0.26672851  0.11643190    -0.39800
N569        N  0.73268277  0.33271305  0.11849080    -0.39600
N570        N  0.77068823  0.28835698  0.19120019    -0.37200
N571        N  0.62665547  0.28858376  0.26613558    -0.38300
N572        N  0.58946638  0.33197138  0.19283035    -0.39900
C573        C  0.65440456  0.19774576  0.34222252    -0.04900
C574        C  0.65836863  0.16685954  0.33211151     0.09300
C575        C  0.67781496  0.16062128  0.30638628    -0.02300
C576        C  0.69367724  0.18507244  0.29122701    -0.00500
C577        C  0.68978839  0.21590217  0.30145825    -0.04100
C578        C  0.66996108  0.22220767  0.32684385     0.02900
C579        C  0.64219074  0.14081624  0.34870826     0.09700
C580        C  0.68143702  0.12898205  0.29560291     0.35600
C581        C  0.66532873  0.25400536  0.33685565     0.39000
C582        C  0.61353349  0.12976614  0.33776591    -0.04500
C583        C  0.59839256  0.10514302  0.35331079     0.02700
C584        C  0.61158930  0.09167342  0.38018695    -0.04100
C585        C  0.64023946  0.10275084  0.39115194    -0.00300
C586        C  0.65550695  0.12724923  0.37543086    -0.02900
C587        C  0.59938104  0.14419250  0.31082723     0.36400
C588        C  0.65361446  0.08940731  0.41899320     0.40000
C589        C  0.56918830  0.09352970  0.34159909     0.39100
C590        C  0.68472158  0.13893452  0.38694903     0.36000
C591        C  0.63422322  0.20430536  0.36842233     0.36700
C592        C  0.71443435  0.17849280  0.26548411     0.40000
N593        N  0.54592915  0.08416524  0.33228400    -0.38100
N594        N  0.58804326  0.15582099  0.28942102    -0.39700
N595        N  0.66425868  0.07875742  0.44124173    -0.37400
N596        N  0.70798253  0.14846483  0.39608121    -0.39800
N597        N  0.68413236  0.10370149  0.28701536    -0.39600
N598        N  0.73111460  0.17322931  0.24503045    -0.37200
N599        N  0.66169222  0.27943904  0.34463420    -0.38300
N600        N  0.61814663  0.20953152  0.38935976    -0.39900
C601        C  0.33173115  0.64321813  0.87851039    -0.04900
C602        C  0.34848717  0.65811924  0.85450043     0.09300
C603        C  0.38119475  0.65892750  0.85575005    -0.02300
C604        C  0.39705281  0.64373398  0.88017376    -0.00500
C605        C  0.38028710  0.62734979  0.90328489    -0.04100
C606        C  0.34750340  0.62768545  0.90263419     0.02900
C607        C  0.33136065  0.67124891  0.82713750     0.09700
C608        C  0.39850006  0.67490032  0.83158540     0.35600
C609        C  0.32989326  0.61080465  0.92600922     0.39000
C610        C  0.32426538  0.70317415  0.82538675    -0.04500
C611        C  0.30600242  0.71491419  0.80077991     0.02700
C612        C  0.29459442  0.69474305  0.77756170    -0.04100
C613        C  0.30154083  0.66257749  0.77973097    -0.00300
C614        C  0.32026421  0.65110570  0.80403963    -0.02900
C615        C  0.33570537  0.72389723  0.84910870     0.36400
C616        C  0.28989252  0.64102375  0.75684476     0.40000
C617        C  0.29792090  0.74762906  0.80024751     0.39100
C618        C  0.32862609  0.61845062  0.80512486     0.36000
C619        C  0.29810303  0.64340956  0.87796321     0.36700
C620        C  0.43060494  0.64501367  0.88164295     0.40000
N621        N  0.29142571  0.77372043  0.79993310    -0.38100
N622        N  0.34499802  0.74037694  0.86800539    -0.39700
N623        N  0.28035011  0.62368818  0.73885405    -0.37400
N624        N  0.33551981  0.59247366  0.80595934    -0.39800
N625        N  0.41234450  0.68771523  0.81234897    -0.39600
N626        N  0.45737314  0.64601216  0.88297108    -0.37200
N627        N  0.31585091  0.59731157  0.94462813    -0.38300
N628        N  0.27128663  0.64366709  0.87740786    -0.39900
C629        C  0.33144784  0.80264296  0.67388400    -0.04900
C630        C  0.31132051  0.82469354  0.66038511     0.09300
C631        C  0.27899908  0.82042831  0.66283451    -0.02300
C632        C  0.26680917  0.79429484  0.67873805    -0.00500
C633        C  0.28694134  0.77205252  0.69246012    -0.04100
C634        C  0.31945202  0.77659581  0.68994440     0.02900
C635        C  0.32449649  0.85264338  0.64398980     0.09700
C636        C  0.25829347  0.84318033  0.64909606     0.35600
C637        C  0.34089858  0.75415608  0.70311469     0.39000
C638        C  0.32857626  0.85266145  0.61146976    -0.04500
C639        C  0.34352770  0.87781586  0.59641855     0.02700
C640        C  0.35537250  0.90287939  0.61390605    -0.04100
C641        C  0.35026987  0.90317874  0.64645879    -0.00300
C642        C  0.33457716  0.87839075  0.66127354    -0.02900
C643        C  0.31806181  0.82629678  0.59362615     0.36400
C644        C  0.36254740  0.92816787  0.66514462     0.40000
C645        C  0.34660556  0.87784814  0.56287533     0.39100
C646        C  0.32934815  0.87896103  0.69456070     0.36000
C647        C  0.36472079  0.80665328  0.67084570     0.36700
C648        C  0.23346154  0.79104429  0.68176179     0.40000
N649        N  0.34910506  0.87780437  0.53611324    -0.38100
N650        N  0.30968971  0.80517640  0.57949597    -0.39700
N651        N  0.37232379  0.94810412  0.68005824    -0.37400
N652        N  0.32507956  0.87937613  0.72109951    -0.39800
N653        N  0.24182739  0.86135110  0.63807076    -0.39600
N654        N  0.20684716  0.78848832  0.68411767    -0.37200
N655        N  0.35803900  0.73638116  0.71375828    -0.38300
N656        N  0.39124224  0.80986876  0.66832919    -0.39900
C657        C  0.11287210  0.65367728  0.64136413    -0.04900
C658        C  0.13699710  0.63550933  0.65407871     0.09300
C659        C  0.13621914  0.60288704  0.65086937    -0.02300
C660        C  0.11198224  0.58863239  0.63424559    -0.00500
C661        C  0.08844146  0.60693931  0.62054047    -0.04100
C662        C  0.08869859  0.63949721  0.62472187     0.02900
C663        C  0.16380674  0.65107610  0.66970119     0.09700
C664        C  0.16063743  0.58406317  0.66435034     0.35600
C665        C  0.06471107  0.65864474  0.61081929     0.39000
C666        C  0.16082173  0.66224351  0.70033756    -0.04500
C667        C  0.18545906  0.67858495  0.71425100     0.02700
C668        C  0.21319488  0.68417249  0.69749249    -0.04100
C669        C  0.21626589  0.67261346  0.66695354    -0.00300
C670        C  0.19172606  0.65609584  0.65318142    -0.02900
C671        C  0.13209817  0.65733294  0.71729379     0.36400
C672        C  0.24495215  0.67722036  0.64981589     0.40000
C673        C  0.18178291  0.69064834  0.74541530     0.39100
C674        C  0.19499342  0.64457215  0.62175307     0.36000
C675        C  0.11346032  0.68716983  0.64468006     0.36700
C676        C  0.11108360  0.55510501  0.63144117     0.40000
N677        N  0.17881682  0.70030941  0.77027248    -0.38100
N678        N  0.10907004  0.65349558  0.73066816    -0.39700
N679        N  0.26785513  0.68092833  0.63618753    -0.37400
N680        N  0.19755395  0.63528246  0.59671190    -0.39800
N681        N  0.18018440  0.56904862  0.67503636    -0.39600
N682        N  0.11024418  0.52835712  0.62918329    -0.37200
N683        N  0.04553368  0.67387051  0.59975848    -0.38300
N684        N  0.11398900  0.71387670  0.64740310    -0.39900
C685        C  0.33696730  0.38899395  0.86388351    -0.04900
C686        C  0.33867482  0.35683036  0.85767157     0.09300
C687        C  0.35799081  0.33780444  0.87614114    -0.02300
C688        C  0.37604392  0.35087702  0.89999392    -0.00500
C689        C  0.37539000  0.38324277  0.90530959    -0.04100
C690        C  0.35539922  0.40217358  0.88746801     0.02900
C691        C  0.32194030  0.34306790  0.83041514     0.09700
C692        C  0.36000242  0.30480682  0.86986473     0.35600
C693        C  0.35383126  0.43523153  0.89348749     0.39000
C694        C  0.33526314  0.34495977  0.80043418    -0.04500
C695        C  0.32156553  0.32932970  0.77523836     0.02700
C696        C  0.29418447  0.31190719  0.77964633    -0.04100
C697        C  0.27994110  0.31130350  0.80927258    -0.00300
C698        C  0.29394922  0.32654182  0.83464137    -0.02900
C699        C  0.36337972  0.36276695  0.79565106     0.36400
C700        C  0.25112174  0.29459253  0.81372981     0.40000
C701        C  0.33543515  0.33150682  0.74456033     0.39100
C702        C  0.27982884  0.32494404  0.86522043     0.36000
C703        C  0.31646714  0.40855620  0.84574375     0.36700
C704        C  0.39612649  0.33108475  0.91843746     0.40000
N705        N  0.34637252  0.33328149  0.72002539    -0.38100
N706        N  0.38572974  0.37714600  0.79195955    -0.39700
N707        N  0.22804150  0.28136451  0.81723317    -0.37400
N708        N  0.26863604  0.32364049  0.88967093    -0.39800
N709        N  0.36156507  0.27850644  0.86471092    -0.39600
N710        N  0.41209523  0.31529211  0.93320211    -0.37200
N711        N  0.35273384  0.46159450  0.89844331    -0.38300
N712        N  0.30007536  0.42422119  0.83132012    -0.39900
C713        C  0.16164044  0.30915960  0.68755929    -0.04900
C714        C  0.16709007  0.32686443  0.66039692     0.09300
C715        C  0.19782339  0.33214434  0.65033937    -0.02300
C716        C  0.22296514  0.32101147  0.66804905    -0.00500
C717        C  0.21757522  0.30341683  0.69529067    -0.04100
C718        C  0.18682694  0.29736541  0.70491442     0.02900
C719        C  0.14081465  0.34321576  0.64449856     0.09700
C720        C  0.20348672  0.34943131  0.62188948     0.35600
C721        C  0.18114616  0.27944785  0.73294547     0.39000
C722        C  0.13408228  0.37428764  0.65231278    -0.04500
C723        C  0.11000210  0.39044810  0.63717539     0.02700
C724        C  0.09242228  0.37567609  0.61390787    -0.04100
C725        C  0.09897792  0.34443828  0.60629500    -0.00300
C726        C  0.12316249  0.32828952  0.62150148    -0.02900
C727        C  0.15223897  0.38965438  0.67593495     0.36400
C728        C  0.08135556  0.32920116  0.58223131     0.40000
C729        C  0.10304777  0.42220212  0.64599963     0.39100
C730        C  0.13025781  0.29651335  0.61310982     0.36000
C731        C  0.13007029  0.30353151  0.69779950     0.36700
C732        C  0.25437858  0.32915710  0.65914841     0.40000
N733        N  0.09763308  0.44752112  0.65313388    -0.38100
N734        N  0.16692339  0.40170364  0.69473395    -0.39700
N735        N  0.06706035  0.31723127  0.56308142    -0.37400
N736        N  0.13583932  0.27115816  0.60625137    -0.39800
N737        N  0.20792281  0.36307465  0.59908583    -0.39600
N738        N  0.27934861  0.33625208  0.65225948    -0.37200
N739        N  0.17660198  0.26523649  0.75537975    -0.38300
N740        N  0.10481695  0.29906227  0.70582079    -0.39900
C741        C  0.31862616  0.17150060  0.71053906    -0.04900
C742        C  0.32748441  0.17063828  0.67896296     0.09300
C743        C  0.32299808  0.19717307  0.66018396    -0.02300
C744        C  0.30955547  0.22430375  0.67272833    -0.00500
C745        C  0.30043094  0.22529804  0.70433908    -0.04100
C746        C  0.30531357  0.19875870  0.72325814     0.02900
C747        C  0.34107184  0.14172321  0.66492814     0.09700
C748        C  0.33201218  0.19637826  0.62768360     0.35600
C749        C  0.29546954  0.19898564  0.75549178     0.39000
C750        C  0.32192335  0.12107555  0.64850401    -0.04500
C751        C  0.33509898  0.09624389  0.63161004     0.02700
C752        C  0.36759681  0.09153005  0.63139679    -0.04100
C753        C  0.38651812  0.11105287  0.64950101    -0.00300
C754        C  0.37334701  0.13627943  0.66585063    -0.02900
C755        C  0.28866516  0.12610617  0.64817098     0.36400
C756        C  0.41958722  0.10518929  0.65123449     0.40000
C757        C  0.31527209  0.07658602  0.61308241     0.39100
C758        C  0.39310797  0.15737316  0.68273995     0.36000
C759        C  0.32251378  0.14398285  0.72965463     0.36700
C760        C  0.30572246  0.25135209  0.65294874     0.40000
N761        N  0.29948439  0.06091321  0.59826885    -0.38100
N762        N  0.26213505  0.13016110  0.64794892    -0.39700
N763        N  0.44595328  0.10037779  0.65262368    -0.37400
N764        N  0.40886011  0.17430942  0.69613214    -0.39800
N765        N  0.33913684  0.19565015  0.60175810    -0.39600
N766        N  0.30291185  0.27262152  0.63669289    -0.37200
N767        N  0.28758076  0.19914479  0.78121357    -0.38300
N768        N  0.32554523  0.12190378  0.74477421    -0.39900
C769        C  0.69981538  0.32637322  0.82339531    -0.04900
C770        C  0.66831042  0.33542611  0.82383870     0.09300
C771        C  0.64996500  0.33114457  0.79717438    -0.02300
C772        C  0.66266299  0.31684007  0.77067162    -0.00500
C773        C  0.69409255  0.30746071  0.77030578    -0.04100
C774        C  0.71287475  0.31313700  0.79643555     0.02900
C775        C  0.65453373  0.35065728  0.85185940     0.09700
C776        C  0.61809112  0.34203655  0.79682121     0.35600
C777        C  0.74560120  0.30526003  0.79573319     0.39000
C778        C  0.66307918  0.38127792  0.85948391    -0.04500
C779        C  0.64870745  0.39638942  0.88463429     0.02700
C780        C  0.62465586  0.38157409  0.90143815    -0.04100
C781        C  0.61619968  0.35090962  0.89400023    -0.00300
C782        C  0.63163854  0.33521402  0.86973490    -0.02900
C783        C  0.68610256  0.39757495  0.84092883     0.36400
C784        C  0.59069623  0.33607921  0.91031483     0.40000
C785        C  0.65871190  0.42729678  0.89328935     0.39100
C786        C  0.62370152  0.30330451  0.86280150     0.36000
C787        C  0.71875316  0.33057013  0.85076489     0.36700
C788        C  0.64365526  0.31304632  0.74325885     0.40000
N789        N  0.66671327  0.45188779  0.90030667    -0.38100
N790        N  0.70451772  0.41052367  0.82616658    -0.39700
N791        N  0.57017657  0.32436423  0.92318331    -0.37400
N792        N  0.61741077  0.27785289  0.85719310    -0.39800
N793        N  0.59267376  0.35070439  0.79660160    -0.39600
N794        N  0.62857053  0.31003968  0.72135935    -0.37200
N795        N  0.77178753  0.29935132  0.79503020    -0.38300
N796        N  0.73388288  0.33403968  0.87255900    -0.39900
C797        C  0.82494330  0.29518324  0.66697749    -0.04900
C798        C  0.82565159  0.32673162  0.65794991     0.09300
C799        C  0.79968032  0.34589042  0.66374999    -0.02300
C800        C  0.77307342  0.33354898  0.67833635    -0.00500
C801        C  0.77207077  0.30179454  0.68680827    -0.04100
C802        C  0.79810934  0.28264347  0.68104152     0.02900
C803        C  0.85310585  0.33950123  0.64081631     0.09700
C804        C  0.80019513  0.37825466  0.65421714     0.35600
C805        C  0.79762221  0.25020560  0.69025928     0.39000
C806        C  0.85777692  0.33186875  0.60934052    -0.04500
C807        C  0.88305920  0.34444557  0.59277531     0.02700
C808        C  0.90275152  0.36638971  0.60696818    -0.04100
C809        C  0.89777714  0.37434249  0.63838955    -0.00300
C810        C  0.87369028  0.36008317  0.65553339    -0.02900
C811        C  0.83606013  0.31159359  0.59379689     0.36400
C812        C  0.91629638  0.39836128  0.65262534     0.40000
C813        C  0.88892130  0.33450990  0.56111999     0.39100
C814        C  0.86998316  0.36658179  0.68833217     0.36000
C815        C  0.85200875  0.27574167  0.66195833     0.36700
C816        C  0.74634507  0.35339604  0.68371638     0.40000
N817        N  0.89361378  0.32647774  0.53592889    -0.38100
N818        N  0.81861545  0.29553031  0.58146059    -0.39700
N819        N  0.93093815  0.41773255  0.66382890    -0.37400
N820        N  0.86713101  0.37157266  0.71456054    -0.39800
N821        N  0.80070312  0.40407944  0.64667719    -0.39600
N822        N  0.72503624  0.36920883  0.68806758    -0.37200
N823        N  0.79720992  0.22431401  0.69757124    -0.38300
N824        N  0.87366523  0.26032694  0.65793003    -0.39900
C825        C  0.60126995  0.14605652  0.65917013    -0.04900
C826        C  0.63245873  0.15211975  0.65107342     0.09300
C827        C  0.64754538  0.13342636  0.62880045    -0.02300
C828        C  0.63165330  0.10871082  0.61482039    -0.00500
C829        C  0.60067584  0.10220700  0.62331160    -0.04100
C830        C  0.58537072  0.12113910  0.64527734     0.02900
C831        C  0.64952457  0.17856743  0.66541663     0.09700
C832        C  0.67939597  0.13992712  0.62000908     0.35600
C833        C  0.55323763  0.11516153  0.65329192     0.39000
C834        C  0.66291152  0.17515290  0.69505239    -0.04500
C835        C  0.68055742  0.19947081  0.70773709     0.02700
C836        C  0.68531257  0.22714333  0.69061432    -0.04100
C837        C  0.67171769  0.23061598  0.66105296    -0.00300
C838        C  0.65361128  0.20651795  0.64865003    -0.02900
C839        C  0.65871069  0.14646069  0.71232472     0.36400
C840        C  0.67562437  0.25934967  0.64375987     0.40000
C841        C  0.69442493  0.19574458  0.73813291     0.39100
C842        C  0.63882670  0.21051778  0.61873935     0.36000
C843        C  0.58549079  0.16582157  0.68139254     0.36700
C844        C  0.64677907  0.09064642  0.59072565     0.40000
N845        N  0.70549254  0.19282425  0.76238348    -0.38100
N846        N  0.65527538  0.12356499  0.72608426    -0.39700
N847        N  0.67879359  0.28229370  0.63001575    -0.37400
N848        N  0.62690001  0.21366038  0.59493458    -0.39800
N849        N  0.70476018  0.14525171  0.61294918    -0.39600
N850        N  0.65862445  0.07632139  0.57132387    -0.37200
N851        N  0.52754783  0.11048858  0.65959244    -0.38300
N852        N  0.57296312  0.18167438  0.69910805    -0.39900
C853        C  0.32671512  0.82231250  0.30554292    -0.04900
C854        C  0.33657254  0.81883354  0.33654744     0.09300
C855        C  0.33245084  0.79023234  0.35208328    -0.02300
C856        C  0.31802832  0.76532758  0.33686809    -0.00500
C857        C  0.30741662  0.76901046  0.30611242    -0.04100
C858        C  0.31207631  0.79746465  0.29035101     0.02900
C859        C  0.35157032  0.84528798  0.35285514     0.09700
C860        C  0.34327745  0.78645364  0.38369135     0.35600
C861        C  0.30105838  0.80146105  0.25883064     0.39000
C862        C  0.33384753  0.86474486  0.37240395    -0.04500
C863        C  0.34811860  0.88955061  0.38805600     0.02700
C864        C  0.38016718  0.89506599  0.38398612    -0.04100
C865        C  0.39771303  0.87579567  0.36400121    -0.00300
C866        C  0.38353927  0.85074014  0.34884835    -0.02900
C867        C  0.30095861  0.85897992  0.37648763     0.36400
C868        C  0.43026886  0.88229637  0.35836078     0.40000
C869        C  0.32994220  0.90900399  0.40868776     0.39100
C870        C  0.40189856  0.83029786  0.32935352     0.36000
C871        C  0.33157328  0.85155547  0.28940778     0.36700
C872        C  0.31498088  0.73555995  0.35250892     0.40000
N873        N  0.31534491  0.92450763  0.42509563    -0.38100
N874        N  0.27474371  0.85419523  0.37967157    -0.39700
N875        N  0.45618089  0.88769551  0.35388237    -0.37400
N876        N  0.41658464  0.81391247  0.31391840    -0.39800
N877        N  0.35192307  0.78350514  0.40891463    -0.39600
N878        N  0.31264362  0.71172289  0.36481371    -0.37200
N879        N  0.29223084  0.80465625  0.23369642    -0.38300
N880        N  0.33559580  0.87489005  0.27658387    -0.39900
C881        C  0.34893384  0.66686607  0.19883966    -0.04900
C882        C  0.33231719  0.66409129  0.17088166     0.09300
C883        C  0.30134123  0.67462478  0.16949421    -0.02300
C884        C  0.28682670  0.68730469  0.19608375    -0.00500
C885        C  0.30345969  0.69016505  0.22409445    -0.04100
C886        C  0.33458201  0.67975761  0.22535462     0.02900
C887        C  0.34748783  0.64964246  0.14302652     0.09700
C888        C  0.28472499  0.67308546  0.14040108     0.35600
C889        C  0.35164535  0.68148744  0.25422673     0.39000
C890        C  0.34532036  0.61732980  0.13816214    -0.04500
C891        C  0.36144011  0.60330263  0.11322898     0.02700
C892        C  0.37948993  0.62159781  0.09271089    -0.04100
C893        C  0.38044458  0.65414644  0.09679018    -0.00300
C894        C  0.36478837  0.66805385  0.12204751    -0.02900
C895        C  0.32665815  0.59855359  0.15909008     0.36400
C896        C  0.39821093  0.67328393  0.07538120     0.40000
C897        C  0.35927877  0.57008052  0.10852770     0.39100
C898        C  0.36694563  0.70126909  0.12688040     0.36000
C899        C  0.38100143  0.65672965  0.20015344     0.36700
C900        C  0.25505178  0.69822572  0.19433060     0.40000
N901        N  0.35751273  0.54356513  0.10475375    -0.38100
N902        N  0.31162625  0.58373675  0.17582065    -0.39700
N903        N  0.41226414  0.68849362  0.05815216    -0.37400
N904        N  0.36872509  0.72775825  0.13082173    -0.39800
N905        N  0.27162532  0.67206160  0.11706959    -0.39600
N906        N  0.22967031  0.70689074  0.19300793    -0.37200
N907        N  0.36517365  0.68283503  0.27729795    -0.38300
N908        N  0.40663159  0.64878528  0.20111729    -0.39900
C909        C  0.17016451  0.70332886  0.32917933    -0.04900
C910        C  0.16774321  0.67131900  0.33567732     0.09300
C911        C  0.19225812  0.65118325  0.32737914    -0.02300
C912        C  0.21889740  0.66286403  0.31221874    -0.00500
C913        C  0.22121021  0.69487692  0.30509869    -0.04100
C914        C  0.19669108  0.71508598  0.31379406     0.02900
C915        C  0.13880395  0.65825442  0.34994164     0.09700
C916        C  0.19006734  0.61835541  0.33477241     0.35600
C917        C  0.19823850  0.74788993  0.30611695     0.39000
C918        C  0.11633386  0.64451406  0.33076760    -0.04500
C919        C  0.09075628  0.62893483  0.34405061     0.02700
C920        C  0.08757202  0.62684196  0.37667125    -0.04100
C921        C  0.10920758  0.64199168  0.39582799    -0.00300
C922        C  0.13475655  0.65768927  0.38248197    -0.02900
C923        C  0.12027990  0.64543311  0.29730752     0.36400
C924        C  0.10534253  0.64100350  0.42928471     0.40000
C925        C  0.06859380  0.61365211  0.32410335     0.39100
C926        C  0.15742451  0.67242900  0.40220758     0.36000
C927        C  0.14525551  0.72410586  0.33832718     0.36700
C928        C  0.24437341  0.64200132  0.30501802     0.40000
N929        N  0.05091130  0.60147503  0.30819286    -0.38100
N930        N  0.12363085  0.64611413  0.27064237    -0.39700
N931        N  0.10215184  0.64009138  0.45596543    -0.37400
N932        N  0.17549227  0.68422688  0.41796718    -0.39800
N933        N  0.18819567  0.59220052  0.34075521    -0.39600
N934        N  0.26472086  0.62536968  0.29932004    -0.37200
N935        N  0.19943518  0.77405242  0.29996538    -0.38300
N936        N  0.12542987  0.74066018  0.34581325    -0.39900
C937        C  0.82954295  0.67184466  0.68621903    -0.04900
C938        C  0.82675973  0.66169795  0.65525908     0.09300
C939        C  0.79972123  0.66879805  0.63831568    -0.02300
C940        C  0.77555675  0.68596834  0.65224870    -0.00500
C941        C  0.77820055  0.69585699  0.68333600    -0.04100
C942        C  0.80527506  0.68875381  0.70026768     0.02900
C943        C  0.85182579  0.64246686  0.64082771     0.09700
C944        C  0.79644156  0.65756893  0.60681610     0.35600
C945        C  0.80828223  0.69908015  0.73211160     0.39000
C946        C  0.85524969  0.61101040  0.64952118    -0.04500
C947        C  0.87887197  0.59279133  0.63607510     0.02700
C948        C  0.89892156  0.60579327  0.61345070    -0.04100
C949        C  0.89490417  0.63701507  0.60409287    -0.00300
C950        C  0.87170883  0.65543646  0.61809186    -0.02900
C951        C  0.83427588  0.59737414  0.67222363     0.36400
C952        C  0.91387686  0.64982084  0.57926214     0.40000
C953        C  0.88271154  0.56068799  0.64577311     0.39100
C954        C  0.86823563  0.68775963  0.60912425     0.36000
C955        C  0.85725261  0.66448206  0.70374113     0.36700
C956        C  0.74735398  0.69209564  0.63505094     0.40000
N957        N  0.88571123  0.53506211  0.65343085    -0.38100
N958        N  0.81755159  0.58660251  0.69038623    -0.39700
N959        N  0.92891733  0.65988814  0.55930321    -0.37400
N960        N  0.86538756  0.71353679  0.60194891    -0.39800
N961        N  0.79395213  0.64856083  0.58169913    -0.39600
N962        N  0.72482649  0.69688762  0.62135445    -0.37200
N963        N  0.81057140  0.70728748  0.75752672    -0.38300
N964        N  0.87926267  0.65841252  0.71778142    -0.39900
C965        C  0.66539928  0.87091893  0.61071748    -0.04900
C966        C  0.66827100  0.86722402  0.64314275     0.09300
C967        C  0.65601393  0.89016352  0.66300712    -0.02300
C968        C  0.63760413  0.91446451  0.65089660    -0.00500
C969        C  0.63225048  0.91663374  0.61855917    -0.04100
C970        C  0.64789683  0.89588275  0.59843135     0.02900
C971        C  0.68105444  0.83772638  0.65679007     0.09700
C972        C  0.66154471  0.88801040  0.69612969     0.35600
C973        C  0.64566528  0.90006535  0.56509310     0.39000
C974        C  0.71319804  0.83348547  0.66062769    -0.04500
C975        C  0.72467625  0.80637167  0.67532268     0.02700
C976        C  0.70399779  0.78308822  0.68630390    -0.04100
C977        C  0.67171726  0.78754989  0.68232791    -0.00300
C978        C  0.66042980  0.81449357  0.66729509    -0.02900
C979        C  0.73443281  0.85708458  0.64934576     0.36400
C980        C  0.64991726  0.76416454  0.69295506     0.40000
C981        C  0.75781374  0.80310247  0.67999906     0.39100
C982        C  0.62743080  0.81813827  0.66194573     0.36000
C983        C  0.67952653  0.84839322  0.59010691     0.36700
C984        C  0.62247230  0.93585578  0.67205196     0.40000
N985        N  0.78425456  0.80053658  0.68369845    -0.38100
N986        N  0.75135606  0.87584821  0.64015917    -0.39700
N987        N  0.63245741  0.74563974  0.70159457    -0.37400
N988        N  0.60117095  0.82108043  0.65739677    -0.39800
N989        N  0.66621970  0.88629030  0.72250563    -0.39600
N990        N  0.61038324  0.95286616  0.68897584    -0.37200
N991        N  0.64395144  0.90355573  0.53850185    -0.38300
N992        N  0.69086878  0.83042982  0.57366739    -0.39900
C993        C  0.68120874  0.65072900  0.79257393    -0.04900
C994        C  0.67185266  0.66832530  0.81854442     0.09300
C995        C  0.67635658  0.70082574  0.81815156    -0.02300
C996        C  0.68926700  0.71572407  0.79174592    -0.00500
C997        C  0.69901721  0.69812176  0.76575567    -0.04100
C998        C  0.69512920  0.66535680  0.76658742     0.02900
C999        C  0.65545348  0.65288053  0.84546658     0.09700
C1000       C  0.66776869  0.71896740  0.84515390     0.35600
C1001       C  0.70458950  0.64641452  0.74038857     0.39000
C1002       C  0.67150898  0.63281094  0.86598229    -0.04500
C1003       C  0.65549733  0.61745551  0.89040875     0.02700
C1004       C  0.62346495  0.62289571  0.89524551    -0.04100
C1005       C  0.60767319  0.64359366  0.87504925    -0.00300
C1006       C  0.62339241  0.65787291  0.84998825    -0.02900
C1007       C  0.70453376  0.62784870  0.86181405     0.36400
C1008       C  0.57515052  0.65073777  0.88027605     0.40000
C1009       C  0.67177752  0.59518150  0.90974427     0.39100
C1010       C  0.60637638  0.67742948  0.82842158     0.36000
C1011       C  0.67586611  0.61747128  0.79230935     0.36700
C1012       C  0.69303865  0.74917436  0.79180235     0.40000
N1013       N  0.68476323  0.57731624  0.92509580    -0.38100
N1014       N  0.73087075  0.62384210  0.85838657    -0.39700
N1015       N  0.54921998  0.65642179  0.88441969    -0.37400
N1016       N  0.59289465  0.69304991  0.81118942    -0.39800
N1017       N  0.66086341  0.73338944  0.86671172    -0.39600
N1018       N  0.69583076  0.77589147  0.79180429    -0.37200
N1019       N  0.71234486  0.63120384  0.71966280    -0.38300
N1020       N  0.67166083  0.59094818  0.79212868    -0.39900
loop_ 
_geom_bond_atom_site_label_1 
_geom_bond_atom_site_label_2 
_geom_bond_distance 
_geom_bond_site_symmetry_2 
_ccdc_geom_bond_type 
C1            N2   1.356       .  A
C1            N6   1.354       .  A
C1          C941   1.480       .  S
N2            C3   1.359       .  A
C3            N4   1.366       .  A
C3          C976   1.499       .  S
N4            C5   1.365       .  A
C5            N6   1.357       .  A
C5          C997   1.501       .  S
C7            N8   1.363       .  A
C7           N12   1.357       .  A
C7          C913   1.491       .  S
N8            C9   1.362       .  A
C9           N10   1.359       .  A
C9          C885   1.489       .  S
N10          C11   1.356       .  A
C11          N12   1.356       .  A
C11         C857   1.479       .  S
C13          N14   1.356       .  A
C13          N18   1.360       .  A
C13         C836   1.482       .  S
N14          C15   1.357       .  A
C15          N16   1.356       .  A
C15         C773   1.482       .  S
N16          C17   1.357       .  A
C17          N18   1.361       .  A
C17         C801   1.484       .  S
C19          N20   1.363       .  A
C19          N24   1.359       .  A
C19         C745   1.495       .  S
N20          C21   1.364       .  A
C21          N22   1.362       .  A
C21         C696   1.492       .  S
N22          C23   1.361       .  A
C23          N24   1.357       .  A
C23         C717   1.485       .  S
C25          N26   1.360       .  A
C25          N30   1.361       .  A
C25         C668   1.491       .  S
N26          C27   1.362       .  A
C27          N28   1.360       .  A
C27         C612   1.500       .  S
N28          C29   1.360       .  A
C29          N30   1.361       .  A
C29         C633   1.501       .  S
C31          N32   1.358       .  A
C31          N36   1.358       .  A
C31         C577   1.481       .  S
N32          C33   1.358       .  A
C33          N34   1.360       .  A
C33         C521   1.486       .  S
N34          C35   1.360       .  A
C35          N36   1.360       .  A
C35         C549   1.492       .  S
O37         Cu45   2.070       .  S
O37          C47   1.283       .  A
O38         Cu45   2.073       .  S
O38          C48   1.284       .  A
O39         Cu45   2.074       .  S
O39          C49   1.285       .  A
O40         Cu45   2.082       .  S
O40          C50   1.286       .  A
O41         Cu46   1.949       .  S
O41          C50   1.271       .  A
O42         Cu46   1.945       .  S
O42          C49   1.271       .  A
O43         Cu46   1.959       .  S
O43          C48   1.274       .  A
O44         Cu46   1.958       .  S
O44          C47   1.274       .  A
Cu45        Cu46   2.354       .  S
C47          C71   1.492       .  S
C48          C62   1.494       .  S
C49          C55   1.490       .  S
C50          C80   1.493       .  S
C51         C493   1.488       .  S
C51          C52   1.418       .  A
C51          C56   1.416       .  A
C52          C53   1.402       .  A
C52          H57   1.083       .  S
C53         C105   1.495   1_554  S
C53          C54   1.402       .  A
C54          C55   1.401       .  A
C54          H58   1.085       .  S
C55          C56   1.400       .  A
C56          H59   1.083       .  S
C60         C892   1.492       .  S
C60          C61   1.418       .  A
C60          C65   1.419       .  A
C61          C62   1.405       .  A
C61          H66   1.083       .  S
C62          C63   1.399       .  A
C63          C64   1.402       .  A
C63          H67   1.085       .  S
C64         C114   1.497   1_554  S
C64          C65   1.405       .  A
C65          H68   1.083       .  S
C69         C556   1.496       .  S
C69          C70   1.420       .  A
C69          C74   1.422       .  A
C70          C71   1.403       .  A
C70          H75   1.083       .  S
C71          C72   1.396       .  A
C72          C73   1.399       .  A
C72          H76   1.085       .  S
C73         C121   1.498   1_554  S
C73          C74   1.406       .  A
C74          H77   1.083       .  S
C78         C465   1.484       .  S
C78          C79   1.414       .  A
C78          C83   1.418       .  A
C79          C80   1.399       .  A
C79          H84   1.084       .  S
C80          C81   1.402       .  A
C81          C82   1.406       .  A
C81          H85   1.085       .  S
C82         C132   1.501   1_554  S
C82          C83   1.405       .  A
C83          H86   1.083       .  S
O87         Cu95   2.082       .  S
O87          C97   1.285       .  A
O88         Cu95   2.079       .  S
O88          C98   1.286       .  A
O89         Cu95   2.073       .  S
O89          C99   1.283       .  A
O90         Cu95   2.067       .  S
O90         C100   1.283       .  A
O91         Cu96   1.957       .  S
O91         C100   1.274       .  A
O92         Cu96   1.960       .  S
O92          C99   1.275       .  A
O93         Cu96   1.944       .  S
O93          C98   1.271       .  A
O94         Cu96   1.943       .  S
O94          C97   1.271       .  A
Cu95        Cu96   2.354       .  S
C97         C112   1.494       .  S
C98         C123   1.491       .  S
C99         C103   1.494       .  S
C100        C130   1.490       .  S
C101        C689   1.495       .  S
C101        C102   1.420       .  A
C101        C106   1.419       .  A
C102        C103   1.406       .  A
C102        H107   1.083       .  S
C103        C104   1.399       .  A
C104        C105   1.400       .  A
C104        H108   1.085       .  S
C105        C106   1.405       .  A
C106        H109   1.083       .  S
C110        C605   1.492       .  S
C110        C111   1.419       .  A
C110        C115   1.420       .  A
C111        C112   1.403       .  A
C111        H116   1.083       .  S
C112        C113   1.401       .  A
C113        C114   1.401       .  A
C113        H117   1.085       .  S
C114        C115   1.404       .  A
C115        H118   1.083       .  S
C119        C780   1.483       .  S
C119        C120   1.418       .  A
C119        C124   1.415       .  A
C120        C121   1.403       .  A
C120        H125   1.083       .  S
C121        C122   1.404       .  A
C122        C123   1.401       .  A
C122        H126   1.084       .  S
C123        C124   1.398       .  A
C124        H127   1.084       .  S
C128       C1004   1.500       .  S
C128        C129   1.419       .  A
C128        C133   1.424       .  A
C129        C130   1.402       .  A
C129        H134   1.083       .  S
C130        C131   1.397       .  A
C131        C132   1.400       .  A
C131        H135   1.085       .  S
C132        C133   1.409       .  A
C133        H136   1.083       .  S
O137       Cu145   2.081       .  S
O137        C147   1.285       .  A
O138       Cu145   2.084       .  S
O138        C148   1.285       .  A
O139       Cu145   2.078       .  S
O139        C149   1.285       .  A
O140       Cu145   2.054       .  S
O140        C150   1.281       .  A
O141       Cu146   1.928       .  S
O141        C150   1.271       .  A
O142       Cu146   1.944       .  S
O142        C149   1.272       .  A
O143       Cu146   1.946       .  S
O143        C148   1.272       .  A
O144       Cu146   1.949       .  S
O144        C147   1.272       .  A
Cu145      Cu146   2.360       .  S
C147        C162   1.494       .  S
C148        C173   1.492       .  S
C149        C180   1.491       .  S
C150        C155   1.475       .  S
C151        C444   1.480       .  S
C151        C152   1.422       .  A
C151        C156   1.411       .  A
C152        C153   1.410       .  A
C152        H157   1.083       .  S
C153        C205   1.497   1_545  S
C153        C154   1.396       .  A
C154        C155   1.395       .  A
C154        H158   1.086       .  S
C155        C156   1.395       .  A
C156        H159   1.084       .  S
C160        C584   1.488       .  S
C160        C161   1.417       .  A
C160        C165   1.421       .  A
C161        C162   1.400       .  A
C161        H166   1.083       .  S
C162        C163   1.400       .  A
C163        C164   1.403       .  A
C163        H167   1.084       .  S
C164        C212   1.503   1_545  S
C164        C165   1.407       .  A
C165        H168   1.083       .  S
C169        C752   1.496       .  S
C169        C170   1.423       .  A
C169        C174   1.420       .  A
C170        C171   1.407       .  A
C170        H175   1.083       .  S
C171        C221   1.503   1_545  S
C171        C172   1.402       .  A
C172        C173   1.400       .  A
C172        H176   1.086       .  S
C173        C174   1.400       .  A
C174        H177   1.083       .  S
C178        C829   1.484       .  S
C178        C179   1.415       .  A
C178        C183   1.419       .  A
C179        C180   1.401       .  A
C179        H184   1.083       .  S
C180        C181   1.400       .  A
C181        C182   1.402       .  A
C181        H185   1.083       .  S
C182        C230   1.500   1_545  S
C182        C183   1.403       .  A
C183        H186   1.083       .  S
O187       Cu195   1.945       .  S
O187        C197   1.272       .  A
O188       Cu195   1.960       .  S
O188        C198   1.273       .  A
O189       Cu195   1.947       .  S
O189        C199   1.273       .  A
O190       Cu195   1.950       .  S
O190        C200   1.273       .  A
O191       Cu196   2.074       .  S
O191        C200   1.284       .  A
O192       Cu196   2.078       .  S
O192        C199   1.284       .  A
O193       Cu196   2.083       .  S
O193        C198   1.286       .  A
O194       Cu196   2.074       .  S
O194        C197   1.284       .  A
Cu195      Cu196   2.358       .  S
C197        C232   1.487       .  S
C198        C203   1.497       .  S
C199        C223   1.493       .  S
C200        C214   1.490       .  S
C201        C864   1.486       .  S
C201        C202   1.418       .  A
C201        C206   1.416       .  A
C202        C203   1.401       .  A
C202        H207   1.083       .  S
C203        C204   1.401       .  A
C204        C205   1.407       .  A
C204        H208   1.084       .  S
C205        C206   1.400       .  A
C206        H209   1.083       .  S
C210        C409   1.491       .  S
C210        C211   1.423       .  A
C210        C215   1.416       .  A
C211        C212   1.408       .  A
C211        H216   1.083       .  S
C212        C213   1.402       .  A
C213        C214   1.399       .  A
C213        H217   1.085       .  S
C214        C215   1.401       .  A
C215        H218   1.083       .  S
C219        C640   1.502       .  S
C219        C220   1.426       .  A
C219        C224   1.423       .  A
C220        C221   1.407       .  A
C220        H225   1.083       .  S
C221        C222   1.399       .  A
C222        C223   1.396       .  A
C222        H226   1.084       .  S
C223        C224   1.401       .  A
C224        H227   1.083       .  S
C228        C969   1.496       .  S
C228        C229   1.423       .  A
C228        C233   1.419       .  A
C229        C230   1.409       .  A
C229        H234   1.083       .  S
C230        C231   1.401       .  A
C231        C232   1.398       .  A
C231        H235   1.086       .  S
C232        C233   1.399       .  A
C233        H236   1.083       .  S
C237        N238   1.357       .  A
C237        N242   1.357       .  A
C237        C472   1.478       .  S
N238        C239   1.360       .  A
C239        N240   1.361       .  A
C239        C416   1.497       .  S
N240        C241   1.361       .  A
C241        N242   1.358       .  A
C241        C381   1.488       .  S
O243       Cu251   2.067       .  S
O243        C253   1.283       .  A
O244       Cu251   2.074       .  S
O244        C254   1.284       .  A
O245       Cu251   2.078       .  S
O245        C255   1.285       .  A
O246       Cu251   2.076       .  S
O246        C256   1.285       .  A
O247       Cu252   1.949       .  S
O247        C256   1.272       .  A
O248       Cu252   1.947       .  S
O248        C255   1.272       .  A
O249       Cu252   1.954       .  S
O249        C254   1.273       .  A
O250       Cu252   1.953       .  S
O250        C253   1.273       .  A
Cu251      Cu252   2.353       .  S
C253        C286   1.490       .  S
C254        C259   1.493       .  S
C255        C270   1.491       .  S
C256        C279   1.492       .  S
C257        C360   1.492       .  S
C257        C258   1.418       .  A
C257        C262   1.420       .  A
C258        C259   1.402       .  A
C258        H263   1.083       .  S
C259        C260   1.400       .  A
C260        C261   1.402       .  A
C260        H264   1.085       .  S
C261        C309   1.498   1_455  S
C261        C262   1.405       .  A
C262        H265   1.083       .  S
C266        C920   1.488       .  S
C266        C267   1.419       .  A
C266        C271   1.416       .  A
C267        C268   1.404       .  A
C267        H272   1.083       .  S
C268        C320   1.498   1_455  S
C268        C269   1.403       .  A
C269        C270   1.401       .  A
C269        H273   1.085       .  S
C270        C271   1.400       .  A
C271        H274   1.083       .  S
C275        C724   1.492       .  S
C275        C276   1.420       .  A
C275        C280   1.418       .  A
C276        C277   1.403       .  A
C276        H281   1.083       .  S
C277        C327   1.497   1_455  S
C277        C278   1.401       .  A
C278        C279   1.399       .  A
C278        H282   1.085       .  S
C279        C280   1.402       .  A
C280        H283   1.083       .  S
C284        C661   1.493       .  S
C284        C285   1.418       .  A
C284        C289   1.419       .  A
C285        C286   1.404       .  A
C285        H290   1.083       .  S
C286        C287   1.398       .  A
C287        C288   1.398       .  A
C287        H291   1.085       .  S
C288        C336   1.492   1_455  S
C288        C289   1.404       .  A
C289        H292   1.083       .  S
O293       Cu301   2.063       .  S
O293        C303   1.283       .  A
O294       Cu301   2.062       .  S
O294        C304   1.284       .  A
O295       Cu301   2.064       .  S
O295        C305   1.283       .  A
O296       Cu301   2.062       .  S
O296        C306   1.283       .  A
O297       Cu302   1.953       .  S
O297        C306   1.273       .  A
O298       Cu302   1.951       .  S
O298        C305   1.273       .  A
O299       Cu302   1.957       .  S
O299        C304   1.273       .  A
O300       Cu302   1.954       .  S
O300        C303   1.273       .  A
Cu301      Cu302   2.356       .  S
C303        C311   1.487       .  S
C304        C338   1.488       .  S
C305        C318   1.488       .  S
C306        C329   1.487       .  S
C307        C528   1.491       .  S
C307        C308   1.421       .  A
C307        C312   1.414       .  A
C308        C309   1.407       .  A
C308        H313   1.083       .  S
C309        C310   1.403       .  A
C310        C311   1.399       .  A
C310        H314   1.085       .  S
C311        C312   1.398       .  A
C312        H315   1.083       .  S
C316        C388   1.494       .  S
C316        C317   1.416       .  A
C316        C321   1.422       .  A
C317        C318   1.400       .  A
C317        H322   1.084       .  S
C318        C319   1.399       .  A
C319        C320   1.401       .  A
C319        H323   1.085       .  S
C320        C321   1.405       .  A
C321        H324   1.082       .  S
C325        C808   1.489       .  S
C325        C326   1.420       .  A
C325        C330   1.414       .  A
C326        C327   1.404       .  A
C326        H331   1.083       .  S
C327        C328   1.403       .  A
C328        C329   1.399       .  A
C328        H332   1.085       .  S
C329        C330   1.398       .  A
C330        H333   1.084       .  S
C334        C948   1.485       .  S
C334        C335   1.416       .  A
C334        C339   1.413       .  A
C335        C336   1.400       .  A
C335        H340   1.083       .  S
C336        C337   1.403       .  A
C337        C338   1.401       .  A
C337        H341   1.085       .  S
C338        C339   1.400       .  A
C339        H342   1.083       .  S
C343        N344   1.360       .  A
C343        N348   1.356       .  A
C343        C500   1.489       .  S
N344        C345   1.360       .  A
C345        N346   1.360       .  A
C345        C353   1.489       .  S
N346        C347   1.358       .  A
C347        N348   1.354       .  A
C347        C437   1.475       .  S
C349        C350   1.411       .  A
C349        C354   1.412       .  A
C349        C367   1.450       .  S
C350        C355   1.499       .  S
C350        C351   1.411       .  A
C351        C352   1.412       .  A
C351        C356   1.451       .  S
C352        C353   1.415       .  A
C352        C368   1.451       .  S
C353        C354   1.415       .  A
C354        C357   1.451       .  S
C355        C358   1.410       .  A
C355        C362   1.412       .  A
C356        N373   1.157       .  T
C357        N375   1.157       .  T
C358        C359   1.411       .  A
C358        C363   1.451       .  S
C359        C360   1.415       .  A
C359        C365   1.451       .  S
C360        C361   1.414       .  A
C361        C362   1.413       .  A
C361        C364   1.450       .  S
C362        C366   1.450       .  S
C363        N370   1.157       .  T
C364        N371   1.157       .  T
C365        N369   1.157       .  T
C366        N372   1.157       .  T
C367        N376   1.157       .  T
C368        N374   1.157       .  T
C377        C378   1.411       .  A
C377        C382   1.412       .  A
C377        C395   1.451       .  S
C378        C383   1.499       .  S
C378        C379   1.411       .  A
C379        C380   1.411       .  A
C379        C384   1.450       .  S
C380        C381   1.414       .  A
C380        C396   1.450       .  S
C381        C382   1.416       .  A
C382        C385   1.451       .  S
C383        C386   1.411       .  A
C383        C390   1.410       .  A
C384        N401   1.157       .  T
C385        N403   1.157       .  T
C386        C387   1.414       .  A
C386        C391   1.449       .  S
C387        C388   1.415       .  A
C387        C393   1.450       .  S
C388        C389   1.417       .  A
C389        C390   1.410       .  A
C389        C392   1.452       .  S
C390        C394   1.452       .  S
C391        N398   1.157       .  T
C392        N399   1.157       .  T
C393        N397   1.157       .  T
C394        N400   1.157       .  T
C395        N404   1.157       .  T
C396        N402   1.157       .  T
C405        C406   1.414       .  A
C405        C410   1.414       .  A
C405        C423   1.450       .  S
C406        C411   1.503       .  S
C406        C407   1.412       .  A
C407        C408   1.412       .  A
C407        C412   1.450       .  S
C408        C409   1.414       .  A
C408        C424   1.451       .  S
C409        C410   1.413       .  A
C410        C413   1.450       .  S
C411        C414   1.411       .  A
C411        C418   1.412       .  A
C412        N429   1.157       .  T
C413        N431   1.157       .  T
C414        C415   1.413       .  A
C414        C419   1.451       .  S
C415        C416   1.419       .  A
C415        C421   1.451       .  S
C416        C417   1.418       .  A
C417        C418   1.414       .  A
C417        C420   1.451       .  S
C418        C422   1.451       .  S
C419        N426   1.157       .  T
C420        N427   1.158       .  T
C421        N425   1.157       .  T
C422        N428   1.157       .  T
C423        N432   1.157       .  T
C424        N430   1.157       .  T
C433        C434   1.411       .  A
C433        C438   1.410       .  A
C433        C451   1.450       .  S
C434        C439   1.494       .  S
C434        C435   1.412       .  A
C435        C436   1.410       .  A
C435        C440   1.450       .  S
C436        C437   1.410       .  A
C436        C452   1.451       .  S
C437        C438   1.410       .  A
C438        C441   1.450       .  S
C439        C442   1.413       .  A
C439        C446   1.409       .  A
C440        N457   1.157       .  T
C441        N459   1.157       .  T
C442        C443   1.413       .  A
C442        C447   1.450       .  S
C443        C444   1.411       .  A
C443        C449   1.449       .  S
C444        C445   1.413       .  A
C445        C446   1.406       .  A
C445        C448   1.452       .  S
C446        C450   1.451       .  S
C447        N454   1.157       .  T
C448        N455   1.157       .  T
C449        N453   1.157       .  T
C450        N456   1.157       .  T
C451        N460   1.157       .  T
C452        N458   1.157       .  T
C461        C462   1.411       .  A
C461        C466   1.409       .  A
C461        C479   1.451       .  S
C462        C467   1.496       .  S
C462        C463   1.412       .  A
C463        C464   1.413       .  A
C463        C468   1.449       .  S
C464        C465   1.411       .  A
C464        C480   1.450       .  S
C465        C466   1.412       .  A
C466        C469   1.451       .  S
C467        C470   1.411       .  A
C467        C474   1.412       .  A
C468        N485   1.157       .  T
C469        N487   1.157       .  T
C470        C471   1.411       .  A
C470        C475   1.450       .  S
C471        C472   1.411       .  A
C471        C477   1.451       .  S
C472        C473   1.410       .  A
C473        C474   1.411       .  A
C473        C476   1.450       .  S
C474        C478   1.450       .  S
C475        N482   1.157       .  T
C476        N483   1.157       .  T
C477        N481   1.157       .  T
C478        N484   1.157       .  T
C479        N488   1.157       .  T
C480        N486   1.157       .  T
C489        C490   1.409       .  A
C489        C494   1.408       .  A
C489        C507   1.451       .  S
C490        C495   1.494       .  S
C490        C491   1.411       .  A
C491        C492   1.411       .  A
C491        C496   1.450       .  S
C492        C493   1.415       .  A
C492        C508   1.451       .  S
C493        C494   1.415       .  A
C494        C497   1.451       .  S
C495        C498   1.408       .  A
C495        C502   1.410       .  A
C496        N513   1.157       .  T
C497        N515   1.157       .  T
C498        C499   1.410       .  A
C498        C503   1.451       .  S
C499        C500   1.418       .  A
C499        C505   1.451       .  S
C500        C501   1.416       .  A
C501        C502   1.410       .  A
C501        C504   1.451       .  S
C502        C506   1.451       .  S
C503        N510   1.157       .  T
C504        N511   1.157       .  T
C505        N509   1.157       .  T
C506        N512   1.157       .  T
C507        N516   1.157       .  T
C508        N514   1.157       .  T
C517        C518   1.411       .  A
C517        C522   1.412       .  A
C517        C535   1.450       .  S
C518        C523   1.498       .  S
C518        C519   1.411       .  A
C519        C520   1.412       .  A
C519        C524   1.450       .  S
C520        C521   1.414       .  A
C520        C536   1.451       .  S
C521        C522   1.413       .  A
C522        C525   1.450       .  S
C523        C526   1.411       .  A
C523        C530   1.411       .  A
C524        N541   1.157       .  T
C525        N543   1.157       .  T
C526        C527   1.411       .  A
C526        C531   1.450       .  S
C527        C528   1.414       .  A
C527        C533   1.451       .  S
C528        C529   1.415       .  A
C529        C530   1.412       .  A
C529        C532   1.451       .  S
C530        C534   1.450       .  S
C531        N538   1.157       .  T
C532        N539   1.157       .  T
C533        N537   1.157       .  T
C534        N540   1.157       .  T
C535        N544   1.157       .  T
C536        N542   1.157       .  T
C545        C546   1.411       .  A
C545        C550   1.412       .  A
C545        C563   1.451       .  S
C546        C551   1.501       .  S
C546        C547   1.411       .  A
C547        C548   1.414       .  A
C547        C552   1.450       .  S
C548        C549   1.416       .  A
C548        C564   1.451       .  S
C549        C550   1.416       .  A
C550        C553   1.451       .  S
C551        C554   1.411       .  A
C551        C558   1.410       .  A
C552        N569   1.157       .  T
C553        N571   1.157       .  T
C554        C555   1.413       .  A
C554        C559   1.450       .  S
C555        C556   1.415       .  A
C555        C561   1.450       .  S
C556        C557   1.417       .  A
C557        C558   1.413       .  A
C557        C560   1.451       .  S
C558        C562   1.451       .  S
C559        N566   1.157       .  T
C560        N567   1.157       .  T
C561        N565   1.157       .  T
C562        N568   1.157       .  T
C563        N572   1.157       .  T
C564        N570   1.157       .  T
C573        C574   1.412       .  A
C573        C578   1.411       .  A
C573        C591   1.450       .  S
C574        C579   1.499       .  S
C574        C575   1.412       .  A
C575        C576   1.413       .  A
C575        C580   1.450       .  S
C576        C577   1.411       .  A
C576        C592   1.450       .  S
C577        C578   1.411       .  A
C578        C581   1.451       .  S
C579        C582   1.411       .  A
C579        C586   1.413       .  A
C580        N597   1.157       .  T
C581        N599   1.157       .  T
C582        C583   1.411       .  A
C582        C587   1.450       .  S
C583        C584   1.414       .  A
C583        C589   1.451       .  S
C584        C585   1.411       .  A
C585        C586   1.413       .  A
C585        C588   1.449       .  S
C586        C590   1.450       .  S
C587        N594   1.157       .  T
C588        N595   1.157       .  T
C589        N593   1.157       .  T
C590        N596   1.157       .  T
C591        N600   1.157       .  T
C592        N598   1.157       .  T
C601        C602   1.411       .  A
C601        C606   1.410       .  A
C601        C619   1.451       .  S
C602        C607   1.502       .  S
C602        C603   1.413       .  A
C603        C604   1.415       .  A
C603        C608   1.449       .  S
C604        C605   1.414       .  A
C604        C620   1.450       .  S
C605        C606   1.415       .  A
C606        C609   1.451       .  S
C607        C610   1.410       .  A
C607        C614   1.411       .  A
C608        N625   1.157       .  T
C609        N627   1.157       .  T
C610        C611   1.415       .  A
C610        C615   1.450       .  S
C611        C612   1.420       .  A
C611        C617   1.451       .  S
C612        C613   1.419       .  A
C613        C614   1.413       .  A
C613        C616   1.451       .  S
C614        C618   1.452       .  S
C615        N622   1.157       .  T
C616        N623   1.157       .  T
C617        N621   1.157       .  T
C618        N624   1.157       .  T
C619        N628   1.157       .  T
C620        N626   1.157       .  T
C629        C630   1.410       .  A
C629        C634   1.413       .  A
C629        C647   1.451       .  S
C630        C635   1.504       .  S
C630        C631   1.410       .  A
C631        C632   1.416       .  A
C631        C636   1.450       .  S
C632        C633   1.420       .  A
C632        C648   1.451       .  S
C633        C634   1.420       .  A
C634        C637   1.451       .  S
C635        C638   1.411       .  A
C635        C642   1.410       .  A
C636        N653   1.157       .  T
C637        N655   1.158       .  T
C638        C639   1.415       .  A
C638        C643   1.450       .  S
C639        C640   1.418       .  A
C639        C645   1.450       .  S
C640        C641   1.418       .  A
C641        C642   1.413       .  A
C641        C644   1.451       .  S
C642        C646   1.451       .  S
C643        N650   1.157       .  T
C644        N651   1.157       .  T
C645        N649   1.157       .  T
C646        N652   1.157       .  T
C647        N656   1.157       .  T
C648        N654   1.157       .  T
C657        C658   1.412       .  A
C657        C662   1.411       .  A
C657        C675   1.451       .  S
C658        C663   1.503       .  S
C658        C659   1.413       .  A
C659        C660   1.414       .  A
C659        C664   1.450       .  S
C660        C661   1.414       .  A
C660        C676   1.450       .  S
C661        C662   1.415       .  A
C662        C665   1.451       .  S
C663        C666   1.412       .  A
C663        C670   1.412       .  A
C664        N681   1.157       .  T
C665        N683   1.157       .  T
C666        C667   1.415       .  A
C666        C671   1.450       .  S
C667        C668   1.414       .  A
C667        C673   1.450       .  S
C668        C669   1.415       .  A
C669        C670   1.413       .  A
C669        C672   1.451       .  S
C670        C674   1.451       .  S
C671        N678   1.157       .  T
C672        N679   1.157       .  T
C673        N677   1.157       .  T
C674        N680   1.157       .  T
C675        N684   1.157       .  T
C676        N682   1.157       .  T
C685        C686   1.414       .  A
C685        C690   1.416       .  A
C685        C703   1.449       .  S
C686        C691   1.507       .  S
C686        C687   1.413       .  A
C687        C688   1.414       .  A
C687        C692   1.450       .  S
C688        C689   1.414       .  A
C688        C704   1.451       .  S
C689        C690   1.413       .  A
C690        C693   1.450       .  S
C691        C694   1.413       .  A
C691        C698   1.414       .  A
C692        N709   1.157       .  T
C693        N711   1.157       .  T
C694        C695   1.414       .  A
C694        C699   1.450       .  S
C695        C696   1.413       .  A
C695        C701   1.450       .  S
C696        C697   1.413       .  A
C697        C698   1.417       .  A
C697        C700   1.450       .  S
C698        C702   1.450       .  S
C699        N706   1.157       .  T
C700        N707   1.157       .  T
C701        N705   1.157       .  T
C702        N708   1.157       .  T
C703        N712   1.157       .  T
C704        N710   1.157       .  T
C713        C714   1.412       .  A
C713        C718   1.414       .  A
C713        C731   1.450       .  S
C714        C719   1.500       .  S
C714        C715   1.411       .  A
C715        C716   1.411       .  A
C715        C720   1.450       .  S
C716        C717   1.412       .  A
C716        C732   1.450       .  S
C717        C718   1.412       .  A
C718        C721   1.450       .  S
C719        C722   1.411       .  A
C719        C726   1.412       .  A
C720        N737   1.157       .  T
C721        N739   1.157       .  T
C722        C723   1.410       .  A
C722        C727   1.452       .  S
C723        C724   1.416       .  A
C723        C729   1.452       .  S
C724        C725   1.414       .  A
C725        C726   1.414       .  A
C725        C728   1.450       .  S
C726        C730   1.449       .  S
C727        N734   1.157       .  T
C728        N735   1.157       .  T
C729        N733   1.157       .  T
C730        N736   1.157       .  T
C731        N740   1.157       .  T
C732        N738   1.157       .  T
C741        C742   1.412       .  A
C741        C746   1.417       .  A
C741        C759   1.449       .  S
C742        C747   1.503       .  S
C742        C743   1.410       .  A
C743        C744   1.412       .  A
C743        C748   1.452       .  S
C744        C745   1.416       .  A
C744        C760   1.449       .  S
C745        C746   1.416       .  A
C746        C749   1.450       .  S
C747        C750   1.411       .  A
C747        C754   1.412       .  A
C748        N765   1.157       .  T
C749        N767   1.157       .  T
C750        C751   1.413       .  A
C750        C755   1.450       .  S
C751        C752   1.416       .  A
C751        C757   1.451       .  S
C752        C753   1.414       .  A
C753        C754   1.414       .  A
C753        C756   1.450       .  S
C754        C758   1.449       .  S
C755        N762   1.157       .  T
C756        N763   1.157       .  T
C757        N761   1.157       .  T
C758        N764   1.157       .  T
C759        N768   1.157       .  T
C760        N766   1.157       .  T
C769        C770   1.413       .  A
C769        C774   1.410       .  A
C769        C787   1.451       .  S
C770        C775   1.496       .  S
C770        C771   1.412       .  A
C771        C772   1.408       .  A
C771        C776   1.452       .  S
C772        C773   1.414       .  A
C772        C788   1.452       .  S
C773        C774   1.414       .  A
C774        C777   1.451       .  S
C775        C778   1.412       .  A
C775        C782   1.414       .  A
C776        N793   1.157       .  T
C777        N795   1.157       .  T
C778        C779   1.407       .  A
C778        C783   1.451       .  S
C779        C780   1.413       .  A
C779        C785   1.452       .  S
C780        C781   1.410       .  A
C781        C782   1.411       .  A
C781        C784   1.450       .  S
C782        C786   1.451       .  S
C783        N790   1.157       .  T
C784        N791   1.157       .  T
C785        N789   1.157       .  T
C786        N792   1.157       .  T
C787        N796   1.157       .  T
C788        N794   1.157       .  T
C797        C798   1.412       .  A
C797        C802   1.411       .  A
C797        C815   1.451       .  S
C798        C803   1.496       .  S
C798        C799   1.411       .  A
C799        C800   1.409       .  A
C799        C804   1.451       .  S
C800        C801   1.414       .  A
C800        C816   1.452       .  S
C801        C802   1.413       .  A
C802        C805   1.451       .  S
C803        C806   1.410       .  A
C803        C810   1.412       .  A
C804        N821   1.157       .  T
C805        N823   1.157       .  T
C806        C807   1.408       .  A
C806        C811   1.452       .  S
C807        C808   1.416       .  A
C807        C813   1.452       .  S
C808        C809   1.413       .  A
C809        C810   1.411       .  A
C809        C812   1.450       .  S
C810        C814   1.450       .  S
C811        N818   1.157       .  T
C812        N819   1.157       .  T
C813        N817   1.157       .  T
C814        N820   1.157       .  T
C815        N824   1.157       .  T
C816        N822   1.157       .  T
C825        C826   1.413       .  A
C825        C830   1.413       .  A
C825        C843   1.450       .  S
C826        C831   1.497       .  S
C826        C827   1.411       .  A
C827        C828   1.408       .  A
C827        C832   1.451       .  S
C828        C829   1.412       .  A
C828        C844   1.451       .  S
C829        C830   1.412       .  A
C830        C833   1.450       .  S
C831        C834   1.411       .  A
C831        C838   1.412       .  A
C832        N849   1.157       .  T
C833        N851   1.157       .  T
C834        C835   1.411       .  A
C834        C839   1.450       .  S
C835        C836   1.413       .  A
C835        C841   1.451       .  S
C836        C837   1.412       .  A
C837        C838   1.410       .  A
C837        C840   1.451       .  S
C838        C842   1.450       .  S
C839        N846   1.157       .  T
C840        N847   1.157       .  T
C841        N845   1.157       .  T
C842        N848   1.157       .  T
C843        N852   1.157       .  T
C844        N850   1.157       .  T
C853        C854   1.411       .  A
C853        C858   1.410       .  A
C853        C871   1.450       .  S
C854        C859   1.493       .  S
C854        C855   1.410       .  A
C855        C856   1.409       .  A
C855        C860   1.450       .  S
C856        C857   1.412       .  A
C856        C872   1.451       .  S
C857        C858   1.412       .  A
C858        C861   1.451       .  S
C859        C862   1.412       .  A
C859        C866   1.409       .  A
C860        N877   1.157       .  T
C861        N879   1.157       .  T
C862        C863   1.411       .  A
C862        C867   1.451       .  S
C863        C864   1.413       .  A
C863        C869   1.450       .  S
C864        C865   1.414       .  A
C865        C866   1.408       .  A
C865        C868   1.452       .  S
C866        C870   1.450       .  S
C867        N874   1.157       .  T
C868        N875   1.157       .  T
C869        N873   1.157       .  T
C870        N876   1.157       .  T
C871        N880   1.157       .  T
C872        N878   1.157       .  T
C881        C882   1.411       .  A
C881        C886   1.412       .  A
C881        C899   1.451       .  S
C882        C887   1.501       .  S
C882        C883   1.411       .  A
C883        C884   1.414       .  A
C883        C888   1.450       .  S
C884        C885   1.414       .  A
C884        C900   1.450       .  S
C885        C886   1.415       .  A
C886        C889   1.452       .  S
C887        C890   1.412       .  A
C887        C894   1.411       .  A
C888        N905   1.157       .  T
C889        N907   1.157       .  T
C890        C891   1.414       .  A
C890        C895   1.450       .  S
C891        C892   1.413       .  A
C891        C897   1.450       .  S
C892        C893   1.415       .  A
C893        C894   1.412       .  A
C893        C896   1.451       .  S
C894        C898   1.450       .  S
C895        N902   1.157       .  T
C896        N903   1.157       .  T
C897        N901   1.157       .  T
C898        N904   1.157       .  T
C899        N908   1.157       .  T
C900        N906   1.157       .  T
C909        C910   1.409       .  A
C909        C914   1.413       .  A
C909        C927   1.450       .  S
C910        C915   1.498       .  S
C910        C911   1.411       .  A
C911        C912   1.411       .  A
C911        C916   1.451       .  S
C912        C913   1.415       .  A
C912        C928   1.451       .  S
C913        C914   1.418       .  A
C914        C917   1.451       .  S
C915        C918   1.411       .  A
C915        C922   1.412       .  A
C916        N933   1.157       .  T
C917        N935   1.157       .  T
C918        C919   1.410       .  A
C918        C923   1.451       .  S
C919        C920   1.414       .  A
C919        C925   1.451       .  S
C920        C921   1.413       .  A
C921        C922   1.412       .  A
C921        C924   1.450       .  S
C922        C926   1.450       .  S
C923        N930   1.157       .  T
C924        N931   1.157       .  T
C925        N929   1.157       .  T
C926        N932   1.157       .  T
C927        N936   1.157       .  T
C928        N934   1.157       .  T
C937        C938   1.412       .  A
C937        C942   1.409       .  A
C937        C955   1.451       .  S
C938        C943   1.495       .  S
C938        C939   1.411       .  A
C939        C940   1.409       .  A
C939        C944   1.451       .  S
C940        C941   1.413       .  A
C940        C956   1.451       .  S
C941        C942   1.413       .  A
C942        C945   1.451       .  S
C943        C946   1.411       .  A
C943        C950   1.412       .  A
C944        N961   1.157       .  T
C945        N963   1.157       .  T
C946        C947   1.408       .  A
C946        C951   1.451       .  S
C947        C948   1.414       .  A
C947        C953   1.452       .  S
C948        C949   1.412       .  A
C949        C950   1.410       .  A
C949        C952   1.451       .  S
C950        C954   1.450       .  S
C951        N958   1.157       .  T
C952        N959   1.157       .  T
C953        N957   1.157       .  T
C954        N960   1.157       .  T
C955        N964   1.157       .  T
C956        N962   1.157       .  T
C965        C966   1.411       .  A
C965        C970   1.414       .  A
C965        C983   1.449       .  S
C966        C971   1.502       .  S
C966        C967   1.410       .  A
C967        C968   1.411       .  A
C967        C972   1.451       .  S
C968        C969   1.416       .  A
C968        C984   1.451       .  S
C969        C970   1.416       .  A
C970        C973   1.450       .  S
C971        C974   1.409       .  A
C971        C978   1.412       .  A
C972        N989   1.157       .  T
C973        N991   1.157       .  T
C974        C975   1.415       .  A
C974        C979   1.450       .  S
C975        C976   1.421       .  A
C975        C981   1.451       .  S
C976        C977   1.416       .  A
C977        C978   1.413       .  A
C977        C980   1.451       .  S
C978        C982   1.451       .  S
C979        N986   1.157       .  T
C980        N987   1.157       .  T
C981        N985   1.157       .  T
C982        N988   1.157       .  T
C983        N992   1.157       .  T
C984        N990   1.157       .  T
C993        C994   1.411       .  A
C993        C998   1.413       .  A
C993       C1011   1.452       .  S
C994        C999   1.508       .  S
C994        C995   1.414       .  A
C995        C996   1.415       .  A
C995       C1000   1.451       .  S
C996        C997   1.417       .  A
C996       C1012   1.450       .  S
C997        C998   1.422       .  A
C998       C1001   1.452       .  S
C999       C1002   1.415       .  A
C999       C1006   1.412       .  A
C1000      N1017   1.157       .  T
C1001      N1019   1.158       .  T
C1002      C1003   1.417       .  A
C1002      C1007   1.450       .  S
C1003      C1004   1.415       .  A
C1003      C1009   1.450       .  S
C1004      C1005   1.418       .  A
C1005      C1006   1.411       .  A
C1005      C1008   1.452       .  S
C1006      C1010   1.452       .  S
C1007      N1014   1.157       .  T
C1008      N1015   1.157       .  T
C1009      N1013   1.157       .  T
C1010      N1016   1.157       .  T
C1011      N1020   1.157       .  T
C1012      N1018   1.157       .  T
