geometry optimzed in LAMMPS
_audit_creation_date              2020-12-01 
_audit_creation_method            'lammps2cif' 
_symmetry_space_group_name_H-M    'P1' 
_symmetry_Int_Tables_number       1 
_symmetry_cell_setting            triclinic 
loop_ 
_symmetry_equiv_pos_as_xyz 
  x,y,z 
_cell_length_a                    51.6829836 
_cell_length_b                    51.44248775894123 
_cell_length_c                    39.61877298374475 
_cell_angle_alpha                 89.84455111808506 
_cell_angle_beta                  89.71510556802015 
_cell_angle_gamma                 90.1130181177931 
loop_ 
_atom_site_label 
_atom_site_type_symbol 
_atom_site_fract_x 
_atom_site_fract_y 
_atom_site_fract_z 
_atom_site_charge 
N1          N  0.96946888  0.76185309  0.48747783    -0.02700
C2          C  0.96433142  0.73619392  0.48301287    -0.00100
C3          C  0.95655595  0.72501718  0.01320534    -0.23000
C4          C  0.95719070  0.74422425  0.03713954    -0.23200
C5          C  0.96521702  0.76662883  0.02089405    -0.00200
H6          H  0.95297385  0.70457949  0.01785314     0.13500
H7          H  0.95386836  0.74173493  0.06394458     0.13600
N8          N  0.99997481  0.23559906  0.02194067    -0.02700
C9          C  0.99965864  0.26192418  0.02565754    -0.00100
C10         C  0.99037862  0.27372845  0.49674012    -0.23000
C11         C  0.98531832  0.25442560  0.47413796    -0.23200
C12         C  0.99114702  0.23129237  0.49003737    -0.00200
H13         H  0.98834335  0.29438701  0.49223188     0.13500
H14         H  0.97846243  0.25696202  0.44857263     0.13600
N15         N  0.72756783  0.02208398  0.46879261    -0.02700
C16         C  0.75390543  0.02314071  0.46711903    -0.00100
C17         C  0.76398975  0.03191565  0.99726226    -0.23000
C18         C  0.74355063  0.03596180  0.01854540    -0.23200
C19         C  0.72143407  0.03002307  0.00070293    -0.00200
H20         H  0.78423600  0.03436415  0.00338547     0.13500
H21         H  0.74466876  0.04228215  0.04453438     0.13600
N22         N  0.25456681  0.99036904  0.00022577    -0.02700
C23         C  0.22844654  0.99109061  0.00449059    -0.00100
C24         C  0.21605055  0.99121220  0.47365838    -0.23000
C25         C  0.23493318  0.99020884  0.44940421    -0.23200
C26         C  0.25827905  0.98977169  0.46615136    -0.00200
H27         H  0.19537998  0.99110109  0.46939359     0.13500
H28         H  0.23200064  0.98925010  0.42240687     0.13600
N29         N  0.48542646  0.74495534  0.48941986    -0.02700
C30         C  0.48180130  0.77050704  0.48134225    -0.00100
C31         C  0.47662405  0.78496687  0.00990986    -0.23000
C32         C  0.47667189  0.76812106  0.03655382    -0.23200
C33         C  0.48232186  0.74385669  0.02368080    -0.00200
H34         H  0.47327645  0.80570804  0.01116262     0.13500
H35         H  0.47316222  0.77305005  0.06271927     0.13600
N36         N  0.49768952  0.27061047  0.00908268    -0.02700
C37         C  0.49541035  0.24420285  0.01017555    -0.00100
C38         C  0.49603314  0.23383990  0.47805841    -0.23000
C39         C  0.49902095  0.25421005  0.45619797    -0.23200
C40         C  0.49995588  0.27645690  0.47554853    -0.00200
H41         H  0.49514049  0.21346676  0.47139455     0.13500
H42         H  0.50111726  0.25294534  0.42905359     0.13600
N43         N  0.24250871  0.51807931  0.02416345    -0.02700
C44         C  0.26887820  0.51820314  0.02604788    -0.00100
C45         C  0.27974970  0.52509357  0.49535913    -0.23000
C46         C  0.25982445  0.52891631  0.47347493    -0.23200
C47         C  0.23727955  0.52468847  0.49149963    -0.00200
H48         H  0.30016095  0.52671896  0.48944348     0.13500
H49         H  0.26154006  0.53402437  0.44703571     0.13600
N50         N  0.76745487  0.50536850  0.49586110    -0.02700
C51         C  0.74181417  0.51008267  0.49120239    -0.00100
C52         C  0.72892356  0.51013972  0.02184972    -0.23000
C53         C  0.74694273  0.50508125  0.04618235    -0.23200
C54         C  0.77046014  0.50241164  0.02983986    -0.00200
H55         H  0.70832531  0.51245370  0.02585613     0.09500
H56         H  0.74329224  0.50335647  0.07301817     0.13600
O57         O  0.49239435  0.52100556  0.19622987    -0.87600
C58         C  0.47633094  0.54791679  0.29053430     0.88400
Mg59       Mg  0.48531320  0.48151976  0.18094139     1.58100
O60         O  0.54243704  0.54320653  0.27205151    -0.87300
O61         O  0.52326022  0.55056437  0.19852245    -0.74700
C62         C  0.53805890  0.41669355  0.30781428     0.93500
O63         O  0.44812344  0.50278238  0.24788092    -0.74500
O64         O  0.52167510  0.41328414  0.28429820    -0.82000
Mg65       Mg  0.46104588  0.54036059  0.22095081     1.58000
C66         C  0.59304975  0.50962999  0.33492391     0.93400
O67         O  0.47082724  0.57778309  0.19189730    -0.80200
H68         H  0.57200807  0.55179699  0.24123944    -0.05600
C69         C  0.50957719  0.48282306  0.32159290     0.88300
O70         O  0.52838515  0.47211440  0.18789891    -0.74800
O71         O  0.48584958  0.54966983  0.26191423    -0.87500
O72         O  0.57614786  0.52759990  0.33489906    -0.80300
C73         C  0.52450362  0.59521362  0.32975442     0.93500
C74         C  0.48234598  0.59931037  0.19678067     0.93400
Mg75       Mg  0.55925736  0.47574710  0.28148972     1.58000
O76         O  0.55116424  0.43764718  0.31016652    -0.80300
O77         O  0.57001634  0.51367098  0.25417050    -0.74500
O78         O  0.51565876  0.59599335  0.29965681    -0.80300
O79         O  0.43327348  0.53075116  0.17987004    -0.82000
O80         O  0.49912225  0.41776487  0.20696911    -0.80400
C81         C  0.56203030  0.53702611  0.25578130     0.87800
O82         O  0.53303630  0.46500588  0.24198153    -0.87500
O83         O  0.52793258  0.49421357  0.30775583    -0.87600
O84         O  0.49639799  0.46547787  0.30655920    -0.74700
Mg85       Mg  0.51921392  0.57220427  0.24953068     1.58000
O86         O  0.53667838  0.57541942  0.34063790    -0.82000
H87         H  0.51792365  0.52632588  0.15876466    -0.05800
O88         O  0.47595242  0.47278390  0.23239891    -0.87300
H89         H  0.44530017  0.46485854  0.26168261    -0.05600
H90         H  0.56230214  0.46116547  0.20919335    -0.05800
C91         C  0.45594938  0.47933335  0.24749324     0.87800
C92         C  0.51122890  0.53235430  0.18338517     0.88400
C93         C  0.54207946  0.46559879  0.21304925     0.88400
H94         H  0.50404408  0.48840047  0.34687397    -0.05700
O95         O  0.48983793  0.54129057  0.31582855    -0.74800
Mg96       Mg  0.49881061  0.44362539  0.25601807     1.58000
H97         H  0.45587782  0.55141734  0.29394866    -0.05800
C98         C  0.42736747  0.50918093  0.16652688     0.93400
O99         O  0.48024652  0.43932530  0.16476914    -0.82000
C100        C  0.48985142  0.41853476  0.17702760     0.93500
O101        O  0.49627611  0.60322520  0.22260927    -0.82000
Mg102      Mg  0.53323305  0.53359784  0.32312264     1.58200
O103        O  0.44212181  0.48935432  0.16821040    -0.80300
O104        O  0.58893347  0.48768656  0.32104104    -0.82000
O105        O  0.50398724  0.01957371  0.17961056    -0.87600
C106        C  0.53346380  0.03379532  0.27314012     0.88400
Mg107      Mg  0.46441310  0.02514448  0.16616748     1.58100
O108        O  0.52694931  0.96767274  0.25438055    -0.87300
O109        O  0.53274380  0.98805451  0.17990823    -0.74700
C110        C  0.40186001  0.97150588  0.29593595     0.93500
O111        O  0.48595745  0.06209947  0.23359284    -0.74500
O112        O  0.39795850  0.98757558  0.27200136    -0.82000
Mg113      Mg  0.52299043  0.05091322  0.20498485     1.58000
C114        C  0.49351176  0.91684684  0.32108987     0.93400
O115        O  0.55981354  0.04270753  0.17463118    -0.80200
H116        H  0.53475824  0.93737734  0.22453181    -0.05600
C117        C  0.46852928  0.00111089  0.30699129     0.88300
O118        O  0.45677312  0.98152597  0.17423335    -0.74800
O119        O  0.53389704  0.02479555  0.24420843    -0.87500
O120        O  0.51253697  0.93268106  0.31940147    -0.80300
C121        C  0.58117685  0.98395658  0.30794380     0.93500
C122        C  0.58090430  0.03001608  0.17599531     0.93400
Mg123      Mg  0.46029168  0.95095171  0.26836949     1.58000
O124        O  0.42305432  0.95907625  0.29825649    -0.80300
O125        O  0.49728837  0.93926442  0.23985158    -0.74500
O126        O  0.58082147  0.99347691  0.27807863    -0.80300
O127        O  0.51122664  0.08024945  0.16581300    -0.82000
O128        O  0.40280076  0.00751749  0.19370090    -0.80400
C129        C  0.52047213  0.94760490  0.23940698     0.87800
O130        O  0.44977028  0.97675605  0.22852486    -0.87500
O131        O  0.47949549  0.98243111  0.29334992    -0.87600
O132        O  0.45070695  0.01393598  0.29236725    -0.74700
Mg133      Mg  0.55539176  0.99108766  0.22967162     1.58000
O134        O  0.56167581  0.97193647  0.32021451    -0.82000
H135        H  0.50872159  0.99536267  0.14070480    -0.05800
O136        O  0.45634154  0.03393432  0.21787267    -0.87300
H137        H  0.44831991  0.06392749  0.24813609    -0.05600
H138        H  0.44722465  0.94713410  0.19617278    -0.05800
C139        C  0.46273496  0.05384968  0.23329780     0.87800
C140        C  0.51496661  0.00108797  0.16556293     0.88400
C141        C  0.45079207  0.96760683  0.19968095     0.88400
H142        H  0.47474961  0.00713317  0.33176142    -0.05700
O143        O  0.52762444  0.01979653  0.29855779    -0.74800
Mg144      Mg  0.42805070  0.01048085  0.24243571     1.58000
H145        H  0.53745358  0.05416821  0.27677109    -0.05800
C146        C  0.48928336  0.08523883  0.15300387     0.93400
O147        O  0.42211737  0.02823431  0.15092249    -0.82000
C148        C  0.40265822  0.01625743  0.16341670     0.93500
O149        O  0.58547568  0.01411259  0.19992777    -0.82000
Mg150      Mg  0.51930589  0.97624545  0.30623723     1.58200
O151        O  0.47068940  0.06884733  0.15360131    -0.80300
O152        O  0.47161347  0.92216085  0.30839688    -0.82000
O153        O  0.01499833  0.98363501  0.19543752    -0.87600
C154        C  0.02701323  0.95146768  0.28750025     0.88400
Mg155      Mg  0.02649533  0.02277988  0.18370059     1.58100
O156        O  0.96285831  0.96743791  0.26947185    -0.87300
O157        O  0.98068228  0.95847383  0.19476166    -0.74700
C158        C  0.98442751  0.08970857  0.31611388     0.93500
O159        O  0.06129274  0.99395703  0.24680256    -0.74500
O160        O  0.00127694  0.09208878  0.29268195    -0.82000
Mg161      Mg  0.04386021  0.95930958  0.21784749     1.58000
C162        C  0.91665176  0.00563313  0.33591830     0.93400
O163        O  0.02950308  0.92350527  0.18744140    -0.80200
H164        H  0.93237653  0.96473012  0.23879592    -0.05600
C165        C  0.00356424  0.01947020  0.32417168     0.88300
O166        O  0.98518355  0.03728711  0.19259739    -0.74800
O167        O  0.01785661  0.95170624  0.25866315    -0.87500
O168        O  0.92983566  0.98477489  0.33365227    -0.80300
C169        C  0.97123712  0.91102384  0.32308450     0.93500
C170        C  0.01441554  0.90398617  0.19103957     0.93400
Mg171      Mg  0.95551083  0.03571943  0.28583452     1.58000
O172        O  0.96880820  0.07054136  0.31714451    -0.80300
O173        O  0.93925444  0.00128725  0.25568501    -0.74500
O174        O  0.98063409  0.91008410  0.29325980    -0.80300
O175        O  0.07271348  0.96779203  0.17643141    -0.82000
O176        O  0.01952272  0.08617197  0.21345549    -0.80400
C177        C  0.94423994  0.97709828  0.25441885     0.87800
O178        O  0.98246589  0.04383343  0.24702484    -0.87500
O179        O  0.98375991  0.01174661  0.30975618    -0.87600
O180        O  0.01920570  0.03548709  0.31039953    -0.74700
Mg181      Mg  0.98122465  0.93562175  0.24498013     1.58000
O182        O  0.96199027  0.93187557  0.33526170    -0.82000
H183        H  0.99101866  0.98230754  0.15601097    -0.05800
O184        O  0.03717566  0.02797616  0.23525786    -0.87300
H185        H  0.06887145  0.03034846  0.26385629    -0.05600
H186        H  0.95357488  0.05253208  0.21564418    -0.05800
C187        C  0.05635408  0.01814478  0.24890005     0.87800
C188        C  0.99563199  0.97508854  0.18088736     0.88400
C189        C  0.97302500  0.04523502  0.21847664     0.88400
H190        H  0.00812875  0.01171715  0.34880492    -0.05700
O191        O  0.01411610  0.95923237  0.31299187    -0.74800
Mg192      Mg  0.01907858  0.05951585  0.26132168     1.58000
H193        H  0.04673035  0.94510365  0.29099674    -0.05800
C194        C  0.08043743  0.98959934  0.16500094     0.93400
O195        O  0.03713666  0.06438703  0.17073077    -0.82000
C196        C  0.02821069  0.08535308  0.18318140     0.93500
O197        O  0.99909552  0.90221716  0.21617571    -0.82000
Mg198      Mg  0.97213359  0.97303273  0.32136939     1.58200
O199        O  0.06753802  0.01041951  0.16907886    -0.80300
O200        O  0.92509164  0.02723185  0.32480833    -0.82000
O201        O  0.99272260  0.48231323  0.20027285    -0.87600
C202        C  0.96226950  0.46464396  0.29251766     0.88400
Mg203      Mg  0.03267665  0.47671421  0.18737560     1.58100
O204        O  0.97050529  0.53066239  0.27462447    -0.87300
O205        O  0.96304952  0.51276683  0.20034853    -0.74700
C206        C  0.09382852  0.52271525  0.32181929     0.93500
O207        O  0.00881323  0.43621414  0.25024114    -0.74500
O208        O  0.09726332  0.50579630  0.29881136    -0.82000
Mg209      Mg  0.97254027  0.44993453  0.22214029     1.58000
C210        C  0.00265207  0.58111264  0.34135880     0.93400
O211        O  0.93565752  0.46019696  0.19207536    -0.80200
H212        H  0.96456238  0.56117387  0.24425883    -0.05600
C213        C  0.02626049  0.49537979  0.32880955     0.88300
O214        O  0.04164048  0.51933793  0.19828216    -0.74800
O215        O  0.96160120  0.47409205  0.26373114    -0.87500
O216        O  0.98403690  0.56519094  0.33736677    -0.80300
C217        C  0.91595849  0.51595179  0.32930164     0.93500
C218        C  0.91421467  0.47204228  0.19621709     0.93400
Mg219      Mg  0.03734542  0.54634046  0.29216832     1.58000
O220        O  0.07353548  0.53669396  0.32255724    -0.80300
O221        O  0.00123278  0.55876677  0.26215170    -0.74500
O222        O  0.91559178  0.50563421  0.29996065    -0.80300
O223        O  0.98465107  0.42322501  0.17998983    -0.82000
O224        O  0.09495489  0.48813149  0.21927908    -0.80400
C225        C  0.97800068  0.55064871  0.25999977     0.87800
O226        O  0.04858038  0.52111987  0.25266087    -0.87500
O227        O  0.01677384  0.51472022  0.31491760    -0.87600
O228        O  0.04349970  0.48156456  0.31456461    -0.74700
Mg229      Mg  0.94081522  0.50853763  0.25072972     1.58000
O230        O  0.93573390  0.52796711  0.33996042    -0.82000
H231        H  0.98813450  0.50683030  0.16157099    -0.05800
O232        O  0.03924605  0.46476847  0.23850787    -0.87300
H233        H  0.04602153  0.43268974  0.26564454    -0.05600
H234        H  0.05340035  0.55191855  0.22245105    -0.05800
C235        C  0.03215165  0.44401928  0.25155634     0.87800
C236        C  0.98161129  0.50065771  0.18621595     0.88400
C237        C  0.04854783  0.53154421  0.22451680     0.88400
H238        H  0.01894470  0.48948517  0.35325613    -0.05700
O239        O  0.96820991  0.47828786  0.31813193    -0.74800
Mg240      Mg  0.06768732  0.48552881  0.26606951     1.58000
H241        H  0.95821195  0.44422223  0.29588561    -0.05800
C242        C  0.00683425  0.41882477  0.16720967     0.93400
O243        O  0.07521066  0.47328371  0.17335686    -0.82000
C244        C  0.09541572  0.48173820  0.18810496     0.93500
O245        O  0.90995150  0.48621094  0.22196354    -0.82000
Mg246      Mg  0.97725942  0.52184588  0.32620240     1.58200
O247        O  0.02578786  0.43446244  0.17070872    -0.80300
O248        O  0.02554286  0.57509004  0.33257635    -0.82000
C249        C  0.82907160  0.46755440  0.06719355    -0.04700
C250        C  0.83555670  0.48451437  0.09375932     0.09400
C251        C  0.82213689  0.50818756  0.09732187    -0.02100
C252        C  0.80216873  0.51474821  0.07477788    -0.00400
C253        C  0.79492815  0.49742164  0.04870301    -0.04000
C254        C  0.80826726  0.47353142  0.04546580     0.03000
C255        C  0.85602210  0.47737352  0.11881985     0.09900
C256        C  0.82836900  0.52549054  0.12500675     0.35800
C257        C  0.79889324  0.45357555  0.02291969     0.39200
C258        C  0.88236208  0.48069133  0.11055082    -0.04300
C259        C  0.90151302  0.47724449  0.13539611     0.02800
C260        C  0.89440394  0.47099858  0.16905839    -0.04000
C261        C  0.86808589  0.46623176  0.17682529    -0.00200
C262        C  0.84900728  0.46913205  0.15167316    -0.02700
C263        C  0.88969407  0.48870136  0.07670050     0.36500
C264        C  0.86063285  0.45816084  0.21061137     0.40100
C265        C  0.92842592  0.48157206  0.12641405     0.39300
C266        C  0.82203448  0.46408383  0.15963509     0.36200
C267        C  0.84324870  0.44344786  0.06306009     0.36900
C268        C  0.78817577  0.53889786  0.07967495     0.40100
N269        N  0.94981099  0.48495583  0.11878962    -0.37900
N270        N  0.89560759  0.49508289  0.04971987    -0.39500
N271        N  0.85464766  0.45165444  0.23753149    -0.37300
N272        N  0.80049651  0.46003608  0.16586080    -0.39700
N273        N  0.83315512  0.53913938  0.14730004    -0.39400
N274        N  0.77689179  0.55804633  0.08381578    -0.37100
N275        N  0.79174236  0.43665638  0.00618852    -0.38100
N276        N  0.85472439  0.42433588  0.05960420    -0.39800
C277        C  0.87594289  0.50648399  0.40975454    -0.04700
C278        C  0.85060905  0.51048964  0.39794958     0.09400
C279        C  0.84648370  0.51546969  0.36333353    -0.02100
C280        C  0.86762875  0.51638962  0.34057062    -0.00400
C281        C  0.89322817  0.51352796  0.35257622    -0.04000
C282        C  0.89720337  0.50874612  0.38753241     0.03000
C283        C  0.82834593  0.50957892  0.42231347     0.09900
C284        C  0.82043601  0.52008070  0.35130544     0.35800
C285        C  0.92313404  0.50586551  0.40100214     0.39200
C286        C  0.82417107  0.53030502  0.44492745    -0.04300
C287        C  0.80441269  0.52860744  0.46954133     0.02800
C288        C  0.78772656  0.50683247  0.47058194    -0.04000
C289        C  0.79103028  0.48682389  0.44658584    -0.00200
C290        C  0.81196840  0.48765752  0.42359439    -0.02700
C291        C  0.84018921  0.55344753  0.44267386     0.36500
C292        C  0.77312743  0.46523550  0.44529561     0.40100
C293        C  0.80060230  0.54986884  0.49288537     0.39300
C294        C  0.81729035  0.46555903  0.40199447     0.36200
C295        C  0.88002128  0.49947177  0.44483941     0.36900
C296        C  0.86297291  0.52115084  0.30502134     0.40100
N297        N  0.79771166  0.56732263  0.01084389    -0.37900
N298        N  0.85292904  0.57192260  0.44072614    -0.39500
N299        N  0.75936836  0.44755142  0.44322475    -0.37300
N300        N  0.82180174  0.44785830  0.38500545    -0.39700
N301        N  0.79962953  0.52381564  0.34181266    -0.39400
N302        N  0.85926801  0.52480306  0.27661609    -0.37100
N303        N  0.94376044  0.50392278  0.41196913    -0.38100
N304        N  0.88312992  0.49363594  0.47274615    -0.39800
C305        C  0.70790349  0.53403726  0.41190161    -0.04700
C306        C  0.68902843  0.51441492  0.40841674     0.09400
C307        C  0.69068424  0.49161663  0.42801381    -0.02100
C308        C  0.70954847  0.48946245  0.45326342    -0.00400
C309        C  0.72737871  0.50992866  0.45877272    -0.04000
C310        C  0.72703582  0.53190603  0.43720532     0.03000
C311        C  0.66561571  0.51836370  0.38703625     0.09900
C312        C  0.67200194  0.47085149  0.42325885     0.35800
C313        C  0.74483196  0.55327182  0.44239966     0.39200
C314        C  0.66545472  0.50998155  0.35325215    -0.04300
C315        C  0.64181379  0.50782180  0.33576983     0.02800
C316        C  0.61822905  0.51441491  0.35196169    -0.04000
C317        C  0.61887354  0.52543857  0.38465485    -0.00200
C318        C  0.64245452  0.52702727  0.40226968    -0.02700
C319        C  0.68963617  0.50318169  0.33684460     0.36500
C320        C  0.59523464  0.53431638  0.40081668     0.40100
C321        C  0.64187667  0.49936216  0.30088312     0.39300
C322        C  0.64279957  0.53655653  0.43671569     0.36200
C323        C  0.70693297  0.55679332  0.39027063     0.36900
C324        C  0.70948121  0.46674491  0.47511901     0.40100
N325        N  0.64197795  0.49274091  0.27298881    -0.37900
N326        N  0.70903729  0.49801235  0.32381673    -0.39500
N327        N  0.57643287  0.54164951  0.41357904    -0.37300
N328        N  0.64308364  0.54406667  0.46422048    -0.39700
N329        N  0.65706164  0.45435787  0.41938714    -0.39400
N330        N  0.70944943  0.44871590  0.49265369    -0.37100
N331        N  0.75859052  0.57083997  0.44572051    -0.38100
N332        N  0.70620934  0.57486149  0.37283322    -0.39800
C333        C  0.18325266  0.55026924  0.43633698    -0.04700
C334        C  0.16860686  0.52755669  0.43122211     0.09400
C335        C  0.17427058  0.50481535  0.44965624    -0.02100
C336        C  0.19587137  0.50413880  0.47126090    -0.00400
C337        C  0.21151306  0.52650218  0.47507780    -0.04000
C338        C  0.20480235  0.54972120  0.45785962     0.03000
C339        C  0.14936209  0.52672975  0.40332440     0.09900
C340        C  0.15855759  0.48172510  0.44492503     0.35800
C341        C  0.22082994  0.57281420  0.46084010     0.39200
C342        C  0.15715303  0.51802411  0.37117442    -0.04300
C343        C  0.13946460  0.51769299  0.34423229     0.02800
C344        C  0.11336500  0.52539269  0.34947429    -0.04000
C345        C  0.10572453  0.53410083  0.38220158    -0.00200
C346        C  0.12380573  0.53502427  0.40873073    -0.02700
C347        C  0.18353693  0.50917523  0.36596685     0.36500
C348        C  0.07910935  0.54121093  0.38954332     0.40100
C349        C  0.14857943  0.50968512  0.31114198     0.39300
C350        C  0.11610491  0.54418499  0.44191683     0.36200
C351        C  0.17679046  0.57389471  0.41815524     0.36900
C352        C  0.20337755  0.47963685  0.48638834     0.40100
N353        N  0.15597481  0.50318762  0.28486787    -0.37900
N354        N  0.20453194  0.50198488  0.36199278    -0.39500
N355        N  0.05793707  0.54689596  0.39563588    -0.37300
N356        N  0.11003757  0.55152349  0.46837972    -0.39700
N357        N  0.14597019  0.46335116  0.44108406    -0.39400
N358        N  0.20907598  0.45971849  0.49772708    -0.37100
N359        N  0.23359718  0.59122690  0.46316758    -0.38100
N360        N  0.17157689  0.59273401  0.40370249    -0.39800
C361        C  0.20500134  0.48477482  0.09484937    -0.04700
C362        C  0.18405861  0.50203229  0.09929275     0.09400
C363        C  0.18340169  0.52516400  0.08008663    -0.02100
C364        C  0.20389194  0.53137315  0.05778424    -0.00400
C365        C  0.22369189  0.51309865  0.05094145    -0.04000
C366        C  0.22391523  0.48957350  0.06965357     0.03000
C367        C  0.16245378  0.49566849  0.12367584     0.09900
C368        C  0.16128057  0.54239676  0.08264149     0.35800
C369        C  0.24223321  0.46923508  0.06182086     0.39200
C370        C  0.15840892  0.51100986  0.15274749    -0.04300
C371        C  0.13684457  0.50638499  0.17407735     0.02800
C372        C  0.11978914  0.48527072  0.16770670    -0.04000
C373        C  0.12515051  0.46875985  0.13989642    -0.00200
C374        C  0.14566226  0.47454875  0.11737159    -0.02700
C375        C  0.17633188  0.53190457  0.16045661     0.36500
C376        C  0.11003777  0.44530562  0.13470879     0.40100
C377        C  0.13174549  0.52431708  0.20153112     0.39300
C378        C  0.14906456  0.45911794  0.08705576     0.36200
C379        C  0.20689239  0.46180298  0.11602959     0.36900
C380        C  0.20519466  0.55731959  0.04368935     0.40100
N381        N  0.12767496  0.53872981  0.22329893    -0.37900
N382        N  0.19059819  0.54860561  0.16649969    -0.39500
N383        N  0.09815121  0.42648205  0.13069261    -0.37300
N384        N  0.15184181  0.44687985  0.06284265    -0.39700
N385        N  0.14357637  0.55606894  0.08447679    -0.39400
N386        N  0.20585055  0.57849767  0.53381645    -0.37100
N387        N  0.25598132  0.45204757  0.05620530    -0.38100
N388        N  0.20836939  0.44350750  0.13296552    -0.39800
C389        C  0.30835903  0.52599710  0.10572836    -0.04700
C390        C  0.32764921  0.50704049  0.10018210     0.09400
C391        C  0.32473510  0.48894277  0.07388164    -0.02100
C392        C  0.30413454  0.49141934  0.05109144    -0.00400
C393        C  0.28553287  0.51139471  0.05525835    -0.04000
C394        C  0.28715808  0.52802276  0.08347132     0.03000
C395        C  0.35276563  0.50810157  0.11869293     0.09900
C396        C  0.34390249  0.46867287  0.06907220     0.35800
C397        C  0.26846230  0.54868297  0.08802352     0.39200
C398        C  0.35863210  0.48949625  0.14374250    -0.04300
C399        C  0.38328954  0.48932198  0.15891675     0.02800
C400        C  0.40228450  0.50756635  0.14873424    -0.04000
C401        C  0.39648155  0.52592464  0.12330047    -0.00200
C402        C  0.37175882  0.52633076  0.10855758    -0.02700
C403        C  0.33931196  0.47041303  0.15357290     0.36500
C404        C  0.41628455  0.54388428  0.11147320     0.40100
C405        C  0.38881309  0.47090887  0.18570386     0.39300
C406        C  0.36597445  0.54526739  0.08244686     0.36200
C407        C  0.31122360  0.54438814  0.13313542     0.36900
C408        C  0.30304063  0.47426230  0.02205588     0.40100
N409        N  0.39319963  0.45626110  0.20713821    -0.37900
N410        N  0.32389909  0.45509199  0.16112792    -0.39500
N411        N  0.43215159  0.55806730  0.10196707    -0.37300
N412        N  0.36131116  0.56043447  0.06173623    -0.39700
N413        N  0.35913905  0.45244503  0.06549418    -0.39400
N414        N  0.30222643  0.46062778  0.49889803    -0.37100
N415        N  0.25373974  0.56531590  0.09206612    -0.38100
N416        N  0.31357912  0.55919184  0.15485255    -0.39800
C417        C  0.46819998  0.20273913  0.08134421    -0.04700
C418        C  0.48866948  0.18505834  0.08602118     0.09400
C419        C  0.51242992  0.18908289  0.06921771    -0.02100
C420        C  0.51515444  0.20967072  0.04602405    -0.00400
C421        C  0.49439468  0.22708501  0.04039364    -0.04000
C422        C  0.47095540  0.22361749  0.05836279     0.03000
C423        C  0.48455227  0.16031368  0.10512002     0.09900
C424        C  0.53358436  0.17098252  0.07434629     0.35800
C425        C  0.44865042  0.23946784  0.55050383     0.39200
C426        C  0.47612914  0.13792194  0.08778395    -0.04300
C427        C  0.47614640  0.11349508  0.10402970     0.02800
C428        C  0.48552301  0.11122791  0.13733590    -0.04000
C429        C  0.49267589  0.13395987  0.15520303    -0.00200
C430        C  0.49169811  0.15848180  0.13926386    -0.02700
C431        C  0.46844968  0.13996677  0.05270443     0.36500
C432        C  0.50111576  0.13217843  0.19001363     0.40100
C433        C  0.46773474  0.09058603  0.08583028     0.39300
C434        C  0.49832117  0.18185355  0.15773506     0.36200
C435        C  0.44380921  0.19846679  0.09873523     0.36900
C436        C  0.53871843  0.21164466  0.02601391     0.40100
N437        N  0.46088552  0.07233469  0.07135419    -0.37900
N438        N  0.46245601  0.14172778  0.02468847    -0.39500
N439        N  0.50797042  0.13076326  0.21772366    -0.37300
N440        N  0.50332528  0.20056407  0.17250723    -0.39700
N441        N  0.55035950  0.15646891  0.07849244    -0.39400
N442        N  0.55746729  0.21312230  0.01001645    -0.37100
N443        N  0.43033004  0.25142838  0.54436932    -0.38100
N444        N  0.42433070  0.19501678  0.11257731    -0.39800
C445        C  0.53227793  0.35174853  0.35362708    -0.04700
C446        C  0.53179130  0.35999390  0.38762261     0.09400
C447        C  0.53761763  0.38605381  0.39538089    -0.02100
C448        C  0.54222987  0.40419456  0.36924738    -0.00400
C449        C  0.53999118  0.39655441  0.33491131    -0.04000
C450        C  0.53584039  0.36996866  0.32735640     0.03000
C451        C  0.52268839  0.34166623  0.41468476     0.09900
C452        C  0.53739145  0.39454086  0.43028701     0.35800
C453        C  0.53440065  0.36131086  0.29255268     0.39200
C454        C  0.54009731  0.33120523  0.43841485    -0.04300
C455        C  0.53174193  0.31178783  0.46134051     0.02800
C456        C  0.50614456  0.30205605  0.45986851    -0.04000
C457        C  0.48876638  0.31281264  0.43611310    -0.00200
C458        C  0.49666970  0.33334452  0.41486747    -0.02700
C459        C  0.56702452  0.33921760  0.43774055     0.36500
C460        C  0.46360285  0.30104806  0.43068997     0.40100
C461        C  0.55046840  0.29977451  0.48352088     0.39300
C462        C  0.47831014  0.34506345  0.39175082     0.36200
C463        C  0.52799237  0.32455443  0.34564209     0.36900
C464        C  0.54746453  0.43105297  0.37815774     0.40100
N465        N  0.56594679  0.29031343  0.00056451    -0.37900
N466        N  0.58850413  0.34560968  0.43713778    -0.39500
N467        N  0.44370006  0.29159762  0.42536825    -0.37300
N468        N  0.46379133  0.35442408  0.37321153    -0.39700
N469        N  0.53723367  0.40129370  0.45812559    -0.39400
N470        N  0.55173258  0.45242154  0.38537198    -0.37100
N471        N  0.53292319  0.35444133  0.26482820    -0.38100
N472        N  0.52446126  0.30289990  0.33925824    -0.39800
C473        C  0.47206297  0.32556666  0.06305513    -0.04700
C474        C  0.49141991  0.32785184  0.08780426     0.09400
C475        C  0.51155358  0.30939066  0.08857986    -0.02100
C476        C  0.51357865  0.29020158  0.06308661    -0.00400
C477        C  0.49508034  0.28893133  0.03686089    -0.04000
C478        C  0.47368984  0.30604144  0.03808893     0.03000
C479        C  0.49147579  0.35073251  0.11152355     0.09900
C480        C  0.53020733  0.31020973  0.11577796     0.35800
C481        C  0.45239546  0.30269014  0.01498461     0.39200
C482        C  0.48092492  0.34876472  0.14439775    -0.04300
C483        C  0.48077910  0.37063417  0.16616319     0.02800
C484        C  0.49085377  0.39483901  0.15502731    -0.04000
C485        C  0.50146841  0.39663260  0.12204251    -0.00200
C486        C  0.50186955  0.37472305  0.10057668    -0.02700
C487        C  0.46978541  0.32429023  0.15548944     0.36500
C488        C  0.51260854  0.42095633  0.11029341     0.40100
C489        C  0.46936080  0.36841502  0.19953851     0.39300
C490        C  0.51304682  0.37679475  0.06699401     0.36200
C491        C  0.45024330  0.34324723  0.06357163     0.36900
C492        C  0.53518162  0.27242765  0.06386861     0.40100
N493        N  0.46020440  0.36659559  0.22616050    -0.37900
N494        N  0.46086759  0.30471389  0.16416305    -0.39500
N495        N  0.52147366  0.44036734  0.10092202    -0.37300
N496        N  0.52193301  0.37830758  0.04018805    -0.39700
N497        N  0.54487672  0.31069349  0.13774067    -0.39400
N498        N  0.55295951  0.25888561  0.06579683    -0.37100
N499        N  0.43455998  0.30011888  0.99778779    -0.38100
N500        N  0.43277484  0.35728001  0.06407194    -0.39800
C501        C  0.51120799  0.80338063  0.40434741    -0.04700
C502        C  0.49065738  0.81982436  0.39496526     0.09400
C503        C  0.46601008  0.81624830  0.40957650    -0.02100
C504        C  0.46262141  0.79838909  0.43618069    -0.00400
C505        C  0.48371329  0.78316193  0.44757549    -0.04000
C506        C  0.50783441  0.78516270  0.43076551     0.03000
C507        C  0.49553457  0.84351018  0.37390712     0.09900
C508        C  0.44447980  0.83222672  0.39862330     0.35800
C509        C  0.53006164  0.77092906  0.44297925     0.39200
C510        C  0.48738291  0.84445243  0.34008271    -0.04300
C511        C  0.48733521  0.86833035  0.32249931     0.02800
C512        C  0.49655924  0.89125809  0.33822300    -0.04000
C513        C  0.50686681  0.88972290  0.37115157    -0.00200
C514        C  0.50558446  0.86610677  0.38927915    -0.02700
C515        C  0.47834880  0.82092449  0.32381032     0.36500
C516        C  0.51766502  0.91262832  0.38710942     0.40100
C517        C  0.47760168  0.86926386  0.28822541     0.39300
C518        C  0.51307945  0.86537104  0.42453085     0.36200
C519        C  0.53622067  0.80631321  0.38803726     0.36900
C520        C  0.43782584  0.79729159  0.95356874     0.40100
N521        N  0.46967608  0.87006485  0.26097319    -0.37900
N522        N  0.47124285  0.80210573  0.31084128    -0.39500
N523        N  0.52653331  0.93078845  0.39982150    -0.37300
N524        N  0.51874805  0.86469011  0.45274222    -0.39700
N525        N  0.42734661  0.84491548  0.38969789    -0.39400
N526        N  0.41809862  0.79659638  0.96750353    -0.37100
N527        N  0.54825927  0.76009946  0.45238527    -0.38100
N528        N  0.55619428  0.80860927  0.37503020    -0.39800
C529        C  0.47423559  0.66520336  0.15454488    -0.04700
C530        C  0.48326489  0.65977130  0.12155343     0.09400
C531        C  0.49117733  0.63437506  0.11323811    -0.02100
C532        C  0.48904895  0.61426217  0.13721628    -0.00400
C533        C  0.48091814  0.61981407  0.17058587    -0.04000
C534        C  0.47351709  0.64535715  0.17916744     0.03000
C535        C  0.48405627  0.68062474  0.09521280     0.09900
C536        C  0.50234589  0.62916875  0.08023241     0.35800
C537        C  0.46448757  0.65103610  0.21308773     0.39200
C538        C  0.50207979  0.70110569  0.09762845    -0.04300
C539        C  0.50186053  0.72142099  0.07376784     0.02800
C540        C  0.48452170  0.72069624  0.04609732    -0.04000
C541        C  0.46706982  0.69968691  0.04316531    -0.00200
C542        C  0.46671267  0.67984927  0.06778657    -0.02700
C543        C  0.52080213  0.70130568  0.12483743     0.36500
C544        C  0.44807218  0.69921731  0.01642387     0.40100
C545        C  0.51933634  0.74329590  0.07816862     0.39300
C546        C  0.44794013  0.65891391  0.06544290     0.36200
C547        C  0.46593060  0.69126757  0.16325333     0.36900
C548        C  0.49568519  0.58796985  0.12734471     0.40100
N549        N  0.53319513  0.76074555  0.08188815    -0.37900
N550        N  0.53567363  0.70145728  0.14658185    -0.39500
N551        N  0.43253122  0.69827193  0.49554930    -0.37300
N552        N  0.43307293  0.64213792  0.06354089    -0.39700
N553        N  0.51139763  0.62516767  0.05398367    -0.39400
N554        N  0.50070799  0.56712679  0.11863378    -0.37100
N555        N  0.45725198  0.65549610  0.24014797    -0.38100
N556        N  0.45951788  0.71210568  0.17031638    -0.39800
C557        C  0.47992182  0.69668547  0.41737609    -0.04700
C558        C  0.50218736  0.68129124  0.42212431     0.09400
C559        C  0.51876199  0.68687525  0.44939130    -0.02100
C560        C  0.51345699  0.70793447  0.47122767    -0.00400
C561        C  0.49118730  0.72354505  0.46652919    -0.04000
C562        C  0.47440765  0.71758327  0.43940026     0.03000
C563        C  0.50818847  0.65919730  0.39838040     0.09900
C564        C  0.54147396  0.67091009  0.45492760     0.35800
C565        C  0.45052503  0.73177686  0.43492600     0.39200
C566        C  0.51621525  0.66426837  0.36483018    -0.04300
C567        C  0.52122595  0.64356305  0.34225999     0.02800
C568        C  0.51954523  0.61742131  0.35344848    -0.04000
C569        C  0.51219251  0.61245997  0.38748541    -0.00200
C570        C  0.50586306  0.63317102  0.40939700    -0.02700
C571        C  0.51956405  0.69094472  0.35364003     0.36500
C572        C  0.51042621  0.58598195  0.40008361     0.40100
C573        C  0.52865548  0.64934901  0.30769437     0.39300
C574        C  0.49638668  0.62767434  0.44323821     0.36200
C575        C  0.46231220  0.69061810  0.39006120     0.36900
C576        C  0.53184764  0.71407730  0.99746198     0.40100
N577        N  0.53441933  0.65403180  0.28007046    -0.37900
N578        N  0.52218949  0.71226646  0.34486146    -0.39500
N579        N  0.50925814  0.56490451  0.41028876    -0.37300
N580        N  0.48879202  0.62330789  0.47019834    -0.39700
N581        N  0.55941710  0.65798333  0.45955253    -0.39400
N582        N  0.54720750  0.71852063  0.01780184    -0.37100
N583        N  0.43099829  0.74217619  0.43055250    -0.38100
N584        N  0.44835798  0.68582103  0.36817755    -0.39800
C585        C  0.19260441  0.00997904  0.08449596    -0.04700
C586        C  0.17560112  0.98867203  0.08775827     0.09400
C587        C  0.17864310  0.96676109  0.06693524    -0.02100
C588        C  0.19766944  0.96678076  0.04147610    -0.00400
C589        C  0.21376833  0.98881605  0.03662559    -0.04000
C590        C  0.21140778  0.01028910  0.05857616     0.03000
C591        C  0.15197183  0.99082983  0.10917921     0.09900
C592        C  0.16079486  0.94504140  0.07005107     0.35800
C593        C  0.22596133  0.03391351  0.05239293     0.39200
C594        C  0.12986086  0.00313176  0.09591156    -0.04300
C595        C  0.10667488  0.00356391  0.11463860     0.02800
C596        C  0.10526130  0.99081237  0.14626432    -0.04000
C597        C  0.12765056  0.97899803  0.15981348    -0.00200
C598        C  0.15103268  0.97926134  0.14139267    -0.02700
C599        C  0.13084122  0.01462006  0.06240553     0.36500
C600        C  0.12682704  0.96711518  0.19306250     0.40100
C601        C  0.08415553  0.01649335  0.10075321     0.39300
C602        C  0.17413214  0.96756406  0.15538998     0.36200
C603        C  0.18942107  0.03232653  0.10638130     0.36900
C604        C  0.19929266  0.94483309  0.01856806     0.40100
N605        N  0.06633013  0.02701374  0.08966219    -0.37900
N606        N  0.13174348  0.02361457  0.03561794    -0.39500
N607        N  0.12608767  0.95765910  0.21959035    -0.37300
N608        N  0.19260667  0.95833224  0.16659454    -0.39700
N609        N  0.14640762  0.92786183  0.07246735    -0.39400
N610        N  0.20047462  0.92742861  0.00017796    -0.37100
N611        N  0.23680332  0.05333692  0.04803375    -0.38100
N612        N  0.18676898  0.05013885  0.12382836    -0.39800
C613        C  0.33652680  0.97169036  0.34123545    -0.04700
C614        C  0.34432170  0.97227213  0.37534131     0.09400
C615        C  0.37061882  0.96895074  0.38337975    -0.02100
C616        C  0.38923137  0.96633040  0.35742075    -0.00400
C617        C  0.38179913  0.96853961  0.32301408    -0.04000
C618        C  0.35515789  0.97038104  0.31516698     0.03000
C619        C  0.32475609  0.97759443  0.40246152     0.09900
C620        C  0.37862303  0.96916633  0.41843737     0.35800
C621        C  0.34673302  0.97066764  0.28027610     0.39200
C622        C  0.31591123  0.95748477  0.42392105    -0.04300
C623        C  0.29545877  0.96209815  0.44691082     0.02800
C624        C  0.28318735  0.98663474  0.44776653    -0.04000
C625        C  0.29161218  0.00640915  0.42537428    -0.00200
C626        C  0.31329689  0.00240256  0.40445486    -0.02700
C627        C  0.32682849  0.93163480  0.42087450     0.36500
C628        C  0.27640884  0.02984440  0.42095911     0.40100
C629        C  0.28503150  0.94058188  0.46639135     0.39300
C630        C  0.32332514  0.02363526  0.38400943     0.36200
C631        C  0.30920250  0.97269026  0.33303232     0.36900
C632        C  0.41606773  0.96215574  0.36657563     0.40100
N633        N  0.27676089  0.92292539  0.98106041    -0.37900
N634        N  0.33550345  0.91100493  0.41835466    -0.39500
N635        N  0.26400743  0.04825201  0.41660605    -0.37300
N636        N  0.33141776  0.04061487  0.36787961    -0.39700
N637        N  0.38497000  0.96933198  0.44640539    -0.39400
N638        N  0.43737662  0.95845299  0.37402491    -0.37100
N639        N  0.33997054  0.97096206  0.25247089    -0.38100
N640        N  0.28739425  0.97340954  0.32661645    -0.39800
C641        C  0.33248518  0.01025046  0.13286670    -0.04700
C642        C  0.33612079  0.00195188  0.09922085     0.09400
C643        C  0.36144435  0.99769275  0.08706723    -0.02100
C644        C  0.38303849  0.00247896  0.10788322    -0.00400
C645        C  0.37958521  0.01145504  0.14145277    -0.04000
C646        C  0.35408420  0.01504819  0.15387590     0.03000
C647        C  0.31362261  0.99937425  0.07545759     0.09900
C648        C  0.36516460  0.98823257  0.05290202     0.35800
C649        C  0.35002044  0.02475755  0.18781822     0.39200
C650        C  0.30868992  0.01932835  0.05190368    -0.04300
C651        C  0.28907196  0.01638651  0.02755139     0.02800
C652        C  0.27423924  0.99330194  0.02604066    -0.04000
C653        C  0.27869145  0.97359333  0.05031962    -0.00200
C654        C  0.29835627  0.97659882  0.07483112    -0.02700
C655        C  0.32407755  0.04294679  0.05262331     0.36500
C656        C  0.26354575  0.94993460  0.04991477     0.40100
C657        C  0.28332004  0.03793067  0.50531910     0.39300
C658        C  0.30332559  0.95602700  0.09901462     0.36200
C659        C  0.30647131  0.01407091  0.14574467     0.36900
C660        C  0.40880225  0.99749081  0.09471610     0.40100
N661        N  0.27886258  0.05592842  0.48880106    -0.37900
N662        N  0.33646071  0.06170530  0.05315569    -0.39500
N663        N  0.25190278  0.93070131  0.05039474    -0.37300
N664        N  0.30731164  0.93963317  0.11835079    -0.39700
N665        N  0.36787779  0.98064816  0.02564450    -0.39400
N666        N  0.42929454  0.99352203  0.08402670    -0.37100
N667        N  0.34685529  0.03259473  0.21487905    -0.38100
N668        N  0.28570903  0.01697089  0.15612242    -0.39800
C669        C  0.85872871  0.02472437  0.38973233    -0.04700
C670        C  0.83978197  0.00695695  0.37869117     0.09400
C671        C  0.84614237  0.98820731  0.35418628    -0.02100
C672        C  0.87159585  0.98690970  0.34113110    -0.00400
C673        C  0.89050977  0.00511813  0.35166153    -0.04000
C674        C  0.88384136  0.02410141  0.37592618     0.03000
C675        C  0.81410560  0.00646493  0.39607592     0.09900
C676        C  0.82639783  0.97031330  0.34258233     0.35800
C677        C  0.90303400  0.04256970  0.38766867     0.39200
C678        C  0.79457609  0.02423434  0.38700634    -0.04300
C679        C  0.77318947  0.02829134  0.40871713     0.02800
C680        C  0.77118127  0.01421463  0.43931961    -0.04000
C681        C  0.78980832  0.99483230  0.44673405    -0.00200
C682        C  0.81110939  0.99098867  0.42515506    -0.02700
C683        C  0.79742682  0.03950588  0.35638436     0.36500
C684        C  0.78810339  0.97996841  0.97790708     0.40100
C685        C  0.75496064  0.04874933  0.40090408     0.39300
C686        C  0.83112938  0.97250573  0.43419151     0.36200
C687        C  0.85253872  0.04318249  0.41621690     0.36900
C688        C  0.87808757  0.96705340  0.31660052     0.40100
N689        N  0.74094428  0.06538037  0.39382867    -0.37900
N690        N  0.79966626  0.05171061  0.33195949    -0.39500
N691        N  0.78686713  0.96822297  0.00282012    -0.37300
N692        N  0.84723966  0.95792002  0.44129685    -0.39700
N693        N  0.81048480  0.95620530  0.33333502    -0.39400
N694        N  0.88318830  0.95101438  0.29725902    -0.37100
N695        N  0.91819758  0.05741865  0.39707216    -0.38100
N696        N  0.84763818  0.05774819  0.43750698    -0.39800
C697        C  0.66692275  0.05540201  0.05568438    -0.04700
C698        C  0.65361542  0.03224724  0.06344260     0.09400
C699        C  0.65964231  0.00924932  0.04585323    -0.02100
C700        C  0.68047068  0.00884887  0.02263715    -0.00400
C701        C  0.69530463  0.03160297  0.01677954    -0.04000
C702        C  0.68792223  0.05506375  0.03293115     0.03000
C703        C  0.63487317  0.03175784  0.09230723     0.09900
C704        C  0.64524940  0.98561665  0.05310626     0.35800
C705        C  0.70299909  0.07863441  0.02811222     0.39200
C706        C  0.60808547  0.03225705  0.08631076    -0.04300
C707        C  0.59051491  0.03269861  0.11362973     0.02800
C708        C  0.59967378  0.03232187  0.14741871    -0.04000
C709        C  0.62665918  0.03198874  0.15325226    -0.00200
C710        C  0.64413946  0.03151696  0.12578978    -0.02700
C711        C  0.59862815  0.03176734  0.05188141     0.36500
C712        C  0.63657916  0.03290499  0.18742838     0.40100
C713        C  0.56298208  0.03274128  0.10652896     0.39300
C714        C  0.67178309  0.03037245  0.13188572     0.36200
C715        C  0.65961678  0.07939190  0.07239209     0.36900
C716        C  0.68797155  0.98423935  0.00797308     0.40100
N717        N  0.54107984  0.03297007  0.10058760    -0.37900
N718        N  0.59111178  0.03109756  0.02443079    -0.39500
N719        N  0.64458636  0.03376239  0.21463479    -0.37300
N720        N  0.69384281  0.02939280  0.13658647    -0.39700
N721        N  0.63371519  0.96679483  0.05881905    -0.39400
N722        N  0.69318458  0.96399068  0.99733057    -0.37100
N723        N  0.71508299  0.09743515  0.52470171    -0.38100
N724        N  0.65370106  0.09845283  0.08579298    -0.39800
C725        C  0.67343915  0.03016427  0.40601619    -0.04700
C726        C  0.67118736  0.00480427  0.39284638     0.09400
C727        C  0.68947484  0.98578290  0.40227772    -0.02100
C728        C  0.70875601  0.99163833  0.42635852    -0.00400
C729        C  0.70962235  0.01645857  0.44166685    -0.04000
C730        C  0.69236157  0.03588398  0.43043199     0.03000
C731        C  0.64845267  0.99796747  0.37095900     0.09900
C732        C  0.68815433  0.95999875  0.38765584     0.35800
C733        C  0.69476213  0.06222826  0.44277475     0.39200
C734        C  0.65158062  0.99335967  0.33604974    -0.04300
C735        C  0.62986887  0.98765117  0.31569595     0.02800
C736        C  0.60455142  0.98787548  0.32969789    -0.04000
C737        C  0.60153536  0.99305505  0.36469085    -0.00200
C738        C  0.62336491  0.99729696  0.38523341    -0.02700
C739        C  0.67710937  0.99525676  0.32087346     0.36500
C740        C  0.57593126  0.99565233  0.37954480     0.40100
C741        C  0.63379265  0.98107128  0.28046462     0.39300
C742        C  0.61997513  0.00161831  0.42121300     0.36200
C743        C  0.65611456  0.05042898  0.39437435     0.36900
C744        C  0.72675165  0.97155916  0.43636428     0.40100
N745        N  0.63694286  0.97569368  0.25239717    -0.37900
N746        N  0.69747951  0.99686449  0.30877699    -0.39500
N747        N  0.55555778  0.99795154  0.39141652    -0.37300
N748        N  0.61738346  0.00522506  0.44985389    -0.39700
N749        N  0.68729542  0.93950447  0.37573097    -0.39400
N750        N  0.74059103  0.95491717  0.94398597    -0.37100
N751        N  0.69658521  0.08357817  0.45155042    -0.38100
N752        N  0.64224238  0.06652453  0.38505938    -0.39800
C753        C  0.98790487  0.15364244  0.36455480    -0.04700
C754        C  0.98484959  0.14491496  0.39814222     0.09400
C755        C  0.98091455  0.11833914  0.40480379    -0.02100
C756        C  0.98110744  0.10030396  0.37807392    -0.00400
C757        C  0.98369846  0.10897571  0.34413537    -0.04000
C758        C  0.98664542  0.13586165  0.33757419     0.03000
C759        C  0.98580083  0.16402013  0.42640781     0.09900
C760        C  0.97679125  0.10962122  0.43928229     0.35800
C761        C  0.98748497  0.14544600  0.30312470     0.39200
C762        C  0.96325996  0.17755458  0.43574481    -0.04300
C763        C  0.96482209  0.19869447  0.45812189     0.02800
C764        C  0.98891693  0.20594346  0.47227386    -0.04000
C765        C  0.01137917  0.19174021  0.46361223    -0.00200
C766        C  0.00969108  0.17053805  0.44119153    -0.02700
C767        C  0.93859157  0.17037069  0.42109509     0.36500
C768        C  0.03668305  0.20081735  0.47392147     0.40100
C769        C  0.94185853  0.21418248  0.46439597     0.39300
C770        C  0.03276074  0.15617601  0.43184727     0.36200
C771        C  0.99260145  0.18100516  0.35789910     0.36900
C772        C  0.98005584  0.07275043  0.38594343     0.40100
N773        N  0.92358867  0.22668112  0.46901016    -0.37900
N774        N  0.91890272  0.16462883  0.40946874    -0.39500
N775        N  0.05719259  0.20795327  0.48097374    -0.37300
N776        N  0.05109250  0.14462404  0.42435730    -0.39700
N777        N  0.97331272  0.10275814  0.46677809    -0.39400
N778        N  0.97939905  0.05080923  0.39243848    -0.37100
N779        N  0.98788319  0.15322651  0.27569171    -0.38100
N780        N  0.99654782  0.20282218  0.35281369    -0.39800
C781        C  0.03507280  0.19298806  0.08509014    -0.04700
C782        C  0.01496149  0.17615946  0.09565653     0.09400
C783        C  0.98974122  0.18011150  0.08322736    -0.02100
C784        C  0.98497600  0.19953940  0.05888339    -0.00400
C785        C  0.00515167  0.21603089  0.04751129    -0.04000
C786        C  0.03006207  0.21321261  0.06170114     0.03000
C787        C  0.02029881  0.15319863  0.11817508     0.09900
C788        C  0.96855402  0.16417942  0.09580237     0.35800
C789        C  0.05073557  0.23074785  0.05201186     0.39200
C790        C  0.02496452  0.15639066  0.15302604    -0.04300
C791        C  0.02889723  0.13444217  0.17405923     0.02800
C792        C  0.02657112  0.10893754  0.16083014    -0.04000
C793        C  0.02122123  0.10596698  0.12587452    -0.00200
C794        C  0.01903649  0.12789636  0.10465522    -0.02700
C795        C  0.02474251  0.18226427  0.16746372     0.36500
C796        C  0.01614974  0.08046427  0.11169862     0.40100
C797        C  0.03576222  0.13829063  0.20914578     0.39300
C798        C  0.01468138  0.12443218  0.06874302     0.36200
C799        C  0.06106015  0.18907963  0.09772845     0.36900
C800        C  0.95873085  0.20367697  0.04752410     0.40100
N801        N  0.04142620  0.14139355  0.23707659    -0.37900
N802        N  0.02435031  0.20290324  0.17900629    -0.39500
N803        N  0.01184926  0.06019389  0.10040160    -0.37300
N804        N  0.01108980  0.12175217  0.04015137    -0.39700
N805        N  0.95169164  0.15147490  0.10588736    -0.39400
N806        N  0.93739534  0.20675655  0.03983369    -0.37100
N807        N  0.06761840  0.24451774  0.54479868    -0.38100
N808        N  0.08178442  0.18593400  0.10786482    -0.39800
C809        C  0.99520414  0.36353500  0.10584763    -0.04700
C810        C  0.01522398  0.34621802  0.11466986     0.09400
C811        C  0.03338750  0.35329895  0.13937429    -0.02100
C812        C  0.03135655  0.37756881  0.15565080    -0.00400
C813        C  0.01061233  0.39448055  0.14790895    -0.04000
C814        C  0.99269700  0.38745342  0.12267286     0.03000
C815        C  0.01709462  0.32072435  0.09705089     0.09900
C816        C  0.05387662  0.33537349  0.14828870     0.35800
C817        C  0.97197713  0.40507506  0.11341749     0.39200
C818        C  0.03189717  0.31873202  0.06731586    -0.04300
C819        C  0.02866260  0.29714782  0.04604459     0.02800
C820        C  0.00999687  0.27777105  0.05395703    -0.04000
C821        C  0.99737106  0.27845538  0.08568408    -0.00200
C822        C  0.00122542  0.29983291  0.10735737    -0.02700
C823        C  0.04901122  0.33984736  0.05743529     0.36500
C824        C  0.97876261  0.25870532  0.09529600     0.40100
C825        C  0.04323485  0.29586987  0.01464163     0.39300
C826        C  0.98761486  0.30123866  0.13941589     0.36200
C827        C  0.97727565  0.35674633  0.07916953     0.36900
C828        C  0.05020108  0.38472427  0.18101902     0.40100
N829        N  0.05473242  0.29486615  0.48953694    -0.37900
N830        N  0.06257757  0.35675036  0.04954912    -0.39500
N831        N  0.96373533  0.24352025  0.10445572    -0.37300
N832        N  0.97683513  0.30236271  0.16503951    -0.39700
N833        N  0.07013677  0.32095586  0.15538900    -0.39400
N834        N  0.06533078  0.39049483  0.20110700    -0.37100
N835        N  0.95543696  0.41910180  0.10608355    -0.38100
N836        N  0.96308358  0.35135032  0.05778693    -0.39800
C837        C  0.00035571  0.83949546  0.14728670    -0.04700
C838        C  0.99906946  0.84740359  0.11317155     0.09400
C839        C  0.00641882  0.87293136  0.10428459    -0.02100
C840        C  0.01344433  0.89096763  0.12947970    -0.00400
C841        C  0.01285506  0.88368481  0.16407458    -0.04000
C842        C  0.00740252  0.85744744  0.17258423     0.03000
C843        C  0.98995641  0.82874741  0.08661799     0.09900
C844        C  0.00601396  0.88084625  0.06912441     0.35800
C845        C  0.00956957  0.84867858  0.20730801     0.39200
C846        C  0.96343874  0.82255214  0.08393901    -0.04300
C847        C  0.95509926  0.80324146  0.06111222     0.02800
C848        C  0.97315841  0.79036441  0.03997518    -0.04000
C849        C  0.99969308  0.79696704  0.04246687    -0.00200
C850        C  0.00795529  0.81626580  0.06533838    -0.02700
C851        C  0.94479310  0.83560329  0.10548836     0.36500
C852        C  0.01909613  0.78187060  0.02485403     0.40100
C853        C  0.92807661  0.79560601  0.06111028     0.39300
C854        C  0.03526466  0.82243230  0.06821954     0.36200
C855        C  0.99408524  0.81286509  0.15637390     0.36900
C856        C  0.02025448  0.91728076  0.11952271     0.40100
N857        N  0.90650585  0.78954118  0.06192696    -0.37900
N858        N  0.92995771  0.84598392  0.12275434    -0.39500
N859        N  0.03532999  0.76991803  0.51209845    -0.37300
N860        N  0.05702703  0.82742528  0.07048435    -0.39700
N861        N  0.00577448  0.88711146  0.04105766    -0.39400
N862        N  0.02585747  0.93820313  0.11148202    -0.37100
N863        N  0.01146355  0.84159474  0.23494029    -0.38100
N864        N  0.98898545  0.79164289  0.16358952    -0.39800
C865        C  0.99203474  0.80352869  0.41412523    -0.04700
C866        C  0.97056242  0.82006517  0.41023535     0.09400
C867        C  0.94817022  0.81596895  0.42987416    -0.02100
C868        C  0.94793614  0.79665426  0.45510110    -0.00400
C869        C  0.97009471  0.78119741  0.46088800    -0.04000
C870        C  0.99167315  0.78382720  0.43902001     0.03000
C871        C  0.97193459  0.84293109  0.38703089     0.09900
C872        C  0.92523753  0.83145753  0.42361146     0.35800
C873        C  0.01326606  0.76609106  0.44112895     0.39200
C874        C  0.96475153  0.84065607  0.35288868    -0.04300
C875        C  0.96454353  0.86283211  0.33181821     0.02800
C876        C  0.97168055  0.88740688  0.34484443    -0.04000
C877        C  0.97938787  0.88941743  0.37905519    -0.00200
C878        C  0.97935123  0.86727443  0.40001091    -0.02700
C879        C  0.95715770  0.81552629  0.33969951     0.36500
C880        C  0.98799421  0.91410367  0.39275535     0.40100
C881        C  0.95593472  0.86047791  0.29716650     0.39300
C882        C  0.98676239  0.86945838  0.43520192     0.36200
C883        C  0.01444486  0.80684613  0.39234385     0.36900
C884        C  0.92415081  0.79139303  0.47333988     0.40100
N885        N  0.94901854  0.85868663  0.26952909    -0.37900
N886        N  0.95112268  0.79544903  0.32920865    -0.39500
N887        N  0.99484956  0.93372457  0.40384297    -0.37300
N888        N  0.99257857  0.87101463  0.46329337    -0.39700
N889        N  0.90695536  0.84372495  0.41827757    -0.39400
N890        N  0.90472613  0.78713958  0.98691540    -0.37100
N891        N  0.03080282  0.75214011  0.44145439    -0.38100
N892        N  0.03224584  0.80947321  0.37482305    -0.39800
C893        C  0.00082881  0.68357784  0.43658323    -0.04700
C894        C  0.98604441  0.68093619  0.40700489     0.09400
C895        C  0.96670251  0.69940279  0.39958392    -0.02100
C896        C  0.96011782  0.71864314  0.42355351    -0.00400
C897        C  0.97367899  0.72002377  0.45436227    -0.04000
C898        C  0.99496639  0.70330168  0.45986890     0.03000
C899        C  0.98859363  0.65665465  0.38657049     0.09900
C900        C  0.95305802  0.69789031  0.36776939     0.35800
C901        C  0.01060241  0.70606158  0.49001347     0.39200
C902        C  0.97133316  0.63590897  0.39262989    -0.04300
C903        C  0.97601372  0.61123874  0.37847029     0.02800
C904        C  0.99742176  0.60736613  0.35638108    -0.04000
C905        C  0.01346954  0.62904567  0.34823609    -0.00200
C906        C  0.00943619  0.65330761  0.36401590    -0.02700
C907        C  0.94881610  0.63994269  0.41404490     0.36500
C908        C  0.03367375  0.62693860  0.32281824     0.40100
C909        C  0.95909650  0.58985308  0.38800203     0.39300
C910        C  0.02683207  0.67489656  0.35727771     0.36200
C911        C  0.02120746  0.66507254  0.44396710     0.36900
C912        C  0.93851408  0.73582799  0.91720466     0.40100
N913        N  0.94550060  0.57294636  0.39580826    -0.37900
N914        N  0.93072060  0.64334076  0.43076648    -0.39500
N915        N  0.04968318  0.62538234  0.30239083    -0.37300
N916        N  0.04076711  0.69208907  0.35201653    -0.39700
N917        N  0.94235585  0.69668755  0.34223119    -0.39400
N918        N  0.92113794  0.74930096  0.91163609    -0.37100
N919        N  0.02312682  0.70838807  0.51395037    -0.38100
N920        N  0.03741327  0.65028429  0.44991134    -0.39800
N921        N  0.96946754  0.76185164  0.98747951    -0.02700
C922        C  0.96432940  0.73619262  0.98301452    -0.00100
C923        C  0.95655801  0.72501834  0.51320361    -0.23000
C924        C  0.95719218  0.74422545  0.53713780    -0.23200
C925        C  0.96521803  0.76663021  0.52089233    -0.00200
H926        H  0.95297632  0.70458061  0.51785138     0.13500
H927        H  0.95386985  0.74173606  0.56394274     0.13600
N928        N  0.99997395  0.23559884  0.52194061    -0.02700
C929        C  0.99965735  0.26192392  0.52565789    -0.00100
C930        C  0.99038077  0.27372872  0.99673931    -0.23000
C931        C  0.98532056  0.25442581  0.97413728    -0.23200
C932        C  0.99114834  0.23129255  0.99003720    -0.00200
H933        H  0.98834582  0.29438727  0.99223084     0.13500
H934        H  0.97846495  0.25696220  0.94857173     0.13600
N935        N  0.72756790  0.02208387  0.96879336    -0.02700
C936        C  0.75390548  0.02314127  0.96711982    -0.00100
C937        C  0.76398996  0.03191394  0.49726190    -0.23000
C938        C  0.74355094  0.03596020  0.51854522    -0.23200
C939        C  0.72143423  0.03002252  0.50070250    -0.00200
H940        H  0.78423627  0.03436192  0.50338510     0.13500
H941        H  0.74466921  0.04228009  0.54453437     0.13600
N942        N  0.25456624  0.99037544  0.50022617    -0.02700
C943        C  0.22844599  0.99109789  0.50449088    -0.00100
C944        C  0.21605101  0.99120346  0.97365815    -0.23000
C945        C  0.23493359  0.99019995  0.94940394    -0.23200
C946        C  0.25827954  0.98976431  0.96615100    -0.00200
H947        H  0.19538042  0.99109158  0.96939341     0.13500
H948        H  0.23200100  0.98924038  0.92240670     0.13600
N949        N  0.48542626  0.74495552  0.98941997    -0.02700
C950        C  0.48180018  0.77050717  0.98134293    -0.00100
C951        C  0.47662637  0.78496748  0.50990887    -0.23000
C952        C  0.47667382  0.76812217  0.53655329    -0.23200
C953        C  0.48232254  0.74385731  0.52368086    -0.00200
H954        H  0.47327947  0.80570881  0.51116106     0.13500
H955        H  0.47316460  0.77305179  0.56271861     0.13600
N956        N  0.49768762  0.27061122  0.50908345    -0.02700
C957        C  0.49540785  0.24420366  0.51017659    -0.00100
C958        C  0.49603587  0.23383923  0.97805727    -0.23000
C959        C  0.49902328  0.25420954  0.95619703    -0.23200
C960        C  0.49995768  0.27645630  0.97554779    -0.00200
H961        H  0.49514347  0.21346617  0.97139323     0.13500
H962        H  0.50111955  0.25294503  0.92905262     0.13600
N963        N  0.24250811  0.51808264  0.52416325    -0.02700
C964        C  0.26887757  0.51820742  0.52604836    -0.00100
C965        C  0.27975010  0.52508816  0.99535806    -0.23000
C966        C  0.25982464  0.52891126  0.97347426    -0.23200
C967        C  0.23727989  0.52468465  0.99149974    -0.00200
H968        H  0.30016131  0.52671287  0.98944192     0.13500
H969        H  0.26153999  0.53401892  0.94703486     0.13600
N970        N  0.76745327  0.50535993  0.99585818    -0.02700
C971        C  0.74181250  0.51007287  0.99119804    -0.00100
C972        C  0.72892642  0.51015124  0.52185492    -0.23000
C973        C  0.74694627  0.50509259  0.54618664    -0.23200
C974        C  0.77046288  0.50242112  0.52984273    -0.00200
H975        H  0.70832842  0.51246610  0.52586246     0.09500
H976        H  0.74329663  0.50336851  0.57302275     0.13600
O977        O  0.49239250  0.52100658  0.69623061    -0.87600
C978        C  0.47632991  0.54791790  0.79053510     0.88400
Mg979      Mg  0.48531099  0.48152094  0.68094192     1.58100
O980        O  0.54243580  0.54320733  0.77205097    -0.87300
O981        O  0.52325826  0.55056549  0.69852247    -0.74700
C982        C  0.53805686  0.41669435  0.80781401     0.93500
O983        O  0.44812173  0.50278368  0.74788178    -0.74500
O984        O  0.52167306  0.41328490  0.78429794    -0.82000
Mg985      Mg  0.46104428  0.54036181  0.72095164     1.58000
C986        C  0.59304902  0.50963035  0.83492155     0.93400
O987        O  0.47082572  0.57778427  0.69189800    -0.80200
H988        H  0.57200644  0.55179744  0.74123801    -0.05600
C989        C  0.50957596  0.48282396  0.82159278     0.88300
O990        O  0.52838285  0.47211519  0.68789864    -0.74800
O991        O  0.48584830  0.54967088  0.76191486    -0.87500
O992        O  0.57614731  0.52760042  0.83489740    -0.80300
C993        C  0.52450351  0.59521428  0.82975452     0.93500
C994        C  0.48234432  0.59931160  0.69678157     0.93400
Mg995      Mg  0.55925553  0.47574760  0.78148878     1.58000
O996        O  0.55116233  0.43764791  0.81016622    -0.80300
O997        O  0.57001443  0.51367140  0.75416921    -0.74500
O998        O  0.51565823  0.59599415  0.79965714    -0.80300
O999        O  0.43327167  0.53075253  0.67987096    -0.82000
O1000       O  0.49911955  0.41776577  0.70696898    -0.80400
C1001       C  0.56202868  0.53702661  0.75578025     0.87800
O1002       O  0.53303415  0.46500643  0.74198114    -0.87500
O1003       O  0.52793124  0.49421438  0.80775536    -0.87600
O1004       O  0.49639656  0.46547875  0.80655938    -0.74700
Mg1005     Mg  0.51921256  0.57220525  0.74953084     1.58000
O1006       O  0.53667824  0.57541997  0.84063770    -0.82000
H1007       H  0.51792135  0.52632684  0.65876489    -0.05800
O1008       O  0.47595042  0.47278502  0.73239946    -0.87300
H1009       H  0.44529826  0.46485982  0.76168345    -0.05600
H1010       H  0.56229975  0.46116562  0.70919269    -0.05800
C1011       C  0.45594753  0.47933462  0.74749397     0.87800
C1012       C  0.51122687  0.53235533  0.68338552     0.88400
C1013       C  0.54207719  0.46559925  0.71304880     0.88400
H1014       H  0.50404314  0.48840145  0.84687394    -0.05700
O1015       O  0.48983717  0.54129161  0.81582910    -0.74800
Mg1016     Mg  0.49880852  0.44362624  0.75601815     1.58000
H1017       H  0.45587695  0.55141863  0.79394981    -0.05800
C1018       C  0.42736554  0.50918229  0.66652791     0.93400
O1019       O  0.48024382  0.43932671  0.66476949    -0.82000
C1020       C  0.48984851  0.41853597  0.67702758     0.93500
O1021       O  0.49627438  0.60322639  0.72261025    -0.82000
Mg1022     Mg  0.53323232  0.53359855  0.82312223     1.58200
O1023       O  0.44211976  0.48935562  0.66821144    -0.80300
O1024       O  0.58893216  0.48768690  0.82103910    -0.82000
O1025       O  0.50398850  0.01957428  0.67961028    -0.87600
C1026       C  0.53346561  0.03379490  0.77313977     0.88400
Mg1027     Mg  0.46441440  0.02514505  0.66616710     1.58100
O1028       O  0.52695091  0.96767243  0.75437914    -0.87300
O1029       O  0.53274497  0.98805497  0.67990710    -0.74700
C1030       C  0.40186158  0.97150541  0.79593549     0.93500
O1031       O  0.48595857  0.06209930  0.73359344    -0.74500
O1032       O  0.39795985  0.98757523  0.77200107    -0.82000
Mg1033     Mg  0.52299157  0.05091360  0.70498528     1.58000
C1034       C  0.49351350  0.91684636  0.82108854     0.93400
O1035       O  0.55981453  0.04270849  0.67463148    -0.80200
H1036       H  0.53475951  0.93737723  0.72452989    -0.05600
C1037       C  0.46853104  0.00111046  0.80699053     0.88300
O1038       O  0.45677455  0.98152652  0.67423248    -0.74800
O1039       O  0.53389841  0.02479533  0.74420797    -0.87500
O1040       O  0.51253868  0.93268058  0.81939994    -0.80300
C1041       C  0.58117859  0.98395587  0.80794213     0.93500
C1042       C  0.58090524  0.03001695  0.67599476     0.93400
Mg1043     Mg  0.46029323  0.95095150  0.76836839     1.58000
O1044       O  0.42305597  0.95907588  0.79825571    -0.80300
O1045       O  0.49728975  0.93926437  0.73985005    -0.74500
O1046       O  0.58082315  0.99347638  0.77807707    -0.80300
O1047       O  0.51122768  0.08025056  0.66581431    -0.82000
O1048       O  0.40280179  0.00751795  0.69370028    -0.80400
C1049       C  0.52047354  0.94760474  0.73940535     0.87800
O1050       O  0.44977164  0.97675605  0.72852394    -0.87500
O1051       O  0.47949725  0.98243076  0.79334897    -0.87600
O1052       O  0.45070850  0.01393546  0.79236675    -0.74700
Mg1053     Mg  0.55539317  0.99108761  0.72967030     1.58000
O1054       O  0.56167765  0.97193555  0.82021278    -0.82000
H1055       H  0.50872263  0.99536371  0.64070402    -0.05800
O1056       O  0.45634265  0.03393444  0.71787237    -0.87300
H1057       H  0.44832101  0.06392722  0.74813640    -0.05600
H1058       H  0.44722634  0.94713438  0.69617135    -0.05800
C1059       C  0.46273606  0.05384960  0.73329800     0.87800
C1060       C  0.51496778  0.00108869  0.66556219     0.88400
C1061       C  0.45079357  0.96760712  0.69967988     0.88400
H1062       H  0.47475149  0.00713270  0.83176064    -0.05700
O1063       O  0.52762642  0.01979593  0.79855731    -0.74800
Mg1064     Mg  0.42805196  0.01048072  0.74243527     1.58000
H1065       H  0.53745558  0.05416767  0.77677091    -0.05800
C1066       C  0.48928450  0.08523977  0.65300479     0.93400
O1067       O  0.42211864  0.02823470  0.65092191    -0.82000
C1068       C  0.40265933  0.01625806  0.66341612     0.93500
O1069       O  0.58547682  0.01411287  0.69992648    -0.82000
Mg1070     Mg  0.51930771  0.97624487  0.80623599     1.58200
O1071       O  0.47069075  0.06884803  0.65360156    -0.80300
O1072       O  0.47161518  0.92216035  0.80839558    -0.82000
O1073       O  0.01499773  0.98363507  0.69543895    -0.87600
C1074       C  0.02701429  0.95146712  0.78750101     0.88400
Mg1075     Mg  0.02649384  0.02278026  0.68370230     1.58100
O1076       O  0.96285886  0.96743623  0.76947411    -0.87300
O1077       O  0.98068215  0.95847323  0.69476346    -0.74700
C1078       C  0.98442552  0.08970714  0.81611683     0.93500
O1079       O  0.06129250  0.99395764  0.74680317    -0.74500
O1080       O  0.00127503  0.09208770  0.79268504    -0.82000
Mg1081     Mg  0.04386035  0.95931003  0.71784795     1.58000
C1082       C  0.91665228  0.00563027  0.83592147     0.93400
O1083       O  0.02950350  0.92350570  0.68744155    -0.80200
H1084       H  0.93237690  0.96472805  0.73879854    -0.05600
C1085       C  0.00356431  0.01946923  0.82417383     0.88300
O1086       O  0.98518184  0.03728655  0.69259991    -0.74800
O1087       O  0.01785736  0.95170570  0.75866406    -0.87500
O1088       O  0.92983670  0.98477237  0.83365539    -0.80300
C1089       C  0.97123877  0.91102204  0.82308573     0.93500
C1090       C  0.01441639  0.90398627  0.69103975     0.93400
Mg1091     Mg  0.95551019  0.03571749  0.78583731     1.58000
O1092       O  0.96880669  0.07053955  0.81714741    -0.80300
O1093       O  0.93925438  0.00128521  0.75568776    -0.74500
O1094       O  0.98063580  0.91008250  0.79326102    -0.80300
O1095       O  0.07271309  0.96779359  0.67643145    -0.82000
O1096       O  0.01952002  0.08617214  0.71345793    -0.80400
C1097       C  0.94424023  0.97709634  0.75442143     0.87800
O1098       O  0.98246473  0.04383242  0.74702748    -0.87500
O1099       O  0.98376007  0.01174522  0.80975846    -0.87600
O1100       O  0.01920532  0.03548653  0.81040157    -0.74700
Mg1101     Mg  0.98122554  0.93562066  0.74498160     1.58000
O1102       O  0.96199183  0.93187367  0.83526308    -0.82000
H1103       H  0.99101764  0.98230745  0.65601279    -0.05800
O1104       O  0.03717466  0.02797643  0.73525940    -0.87300
H1105       H  0.06887071  0.03034906  0.76385731    -0.05600
H1106       H  0.95357316  0.05253076  0.71564752    -0.05800
C1107       C  0.05635340  0.01814528  0.74890111     0.87800
C1108       C  0.99563139  0.97508832  0.68088911     0.88400
C1109       C  0.97302346  0.04523406  0.71847950     0.88400
H1110       H  0.00812914  0.01171624  0.84880693    -0.05700
O1111       O  0.01411727  0.95923140  0.81299294    -0.74800
Mg1112     Mg  0.01907718  0.05951559  0.76132395     1.58000
H1113       H  0.04673154  0.94510344  0.79099708    -0.05800
C1114       C  0.08043645  0.98960119  0.66500116     0.93400
O1115       O  0.03713427  0.06438764  0.67073302    -0.82000
C1116       C  0.02820768  0.08535340  0.68318367     0.93500
O1117       O  0.99909674  0.90221675  0.71617624    -0.82000
Mg1118     Mg  0.97213461  0.97303101  0.82137142     1.58200
O1119       O  0.06753664  0.01042102  0.66907966    -0.80300
O1120       O  0.92509151  0.02722908  0.82481107    -0.82000
O1121       O  0.99272340  0.48231263  0.70027363    -0.87600
C1122       C  0.96227101  0.46464221  0.79251815     0.88400
Mg1123     Mg  0.03267745  0.47671425  0.68737651     1.58100
O1124       O  0.97050561  0.53066081  0.77462565    -0.87300
O1125       O  0.96304988  0.51276579  0.70034954    -0.74700
C1126       C  0.09382858  0.52271581  0.82182087     0.93500
O1127       O  0.00881475  0.43621328  0.75024131    -0.74500
O1128       O  0.09726377  0.50579710  0.79881270    -0.82000
Mg1129     Mg  0.97254160  0.44993344  0.72214060     1.58000
C1130       C  0.00265126  0.58111143  0.84136047     0.93400
O1131       O  0.93565867  0.46019570  0.69207587    -0.80200
H1132       H  0.96456199  0.56117232  0.74426026    -0.05600
C1133       C  0.02626124  0.49537921  0.82881082     0.88300
O1134       O  0.04164063  0.51933796  0.69828353    -0.74800
O1135       O  0.96160240  0.47409044  0.76373171    -0.87500
O1136       O  0.98403636  0.56518944  0.83736826    -0.80300
C1137       C  0.91595924  0.51594841  0.82930276     0.93500
C1138       C  0.91421565  0.47204070  0.69621774     0.93400
Mg1139     Mg  0.03734522  0.54634015  0.79216985     1.58000
O1140       O  0.07353530  0.53669417  0.82255889    -0.80300
O1141       O  0.00123243  0.55876599  0.76215323    -0.74500
O1142       O  0.91559299  0.50563083  0.79996180    -0.80300
O1143       O  0.98465272  0.42322458  0.67998964    -0.82000
O1144       O  0.09495556  0.48813236  0.71928002    -0.80400
C1145       C  0.97800054  0.55064739  0.76000118     0.87800
O1146       O  0.04858056  0.52111988  0.75266224    -0.87500
O1147       O  0.01677421  0.51471947  0.81491886    -0.87600
O1148       O  0.04350070  0.48156433  0.81456578    -0.74700
Mg1149     Mg  0.94081586  0.50853570  0.75073081     1.58000
O1150       O  0.93573408  0.52796477  0.83996134    -0.82000
H1151       H  0.98813503  0.50682988  0.66157192    -0.05800
O1152       O  0.03924699  0.46476839  0.73850874    -0.87300
H1153       H  0.04602311  0.43268945  0.76564472    -0.05600
H1154       H  0.05339983  0.55191871  0.72245257    -0.05800
C1155       C  0.03215301  0.44401890  0.75155678     0.87800
C1156       C  0.98161184  0.50065701  0.68621691     0.88400
C1157       C  0.04854777  0.53154433  0.72451822     0.88400
H1158       H  0.01894560  0.48948447  0.85325731    -0.05700
O1159       O  0.96821110  0.47828615  0.81813254    -0.74800
Mg1160     Mg  0.06768809  0.48552911  0.76607059     1.58000
H1161       H  0.95821400  0.44422040  0.79588591    -0.05800
C1162       C  0.00683594  0.41882467  0.66720940     0.93400
O1163       O  0.07521128  0.47328448  0.67335788    -0.82000
C1164       C  0.09541628  0.48173920  0.68810584     0.93500
O1165       O  0.90995227  0.48620892  0.72196453    -0.82000
Mg1166     Mg  0.97725971  0.52184431  0.82620353     1.58200
O1167       O  0.02578941  0.43446245  0.67070887    -0.80300
O1168       O  0.02554217  0.57508927  0.83257809    -0.82000
C1169       C  0.82907115  0.46755742  0.56719457    -0.04700
C1170       C  0.83555870  0.48451679  0.59375992     0.09400
C1171       C  0.82214182  0.50819166  0.59732252    -0.02100
C1172       C  0.80217426  0.51475471  0.57477877    -0.00400
C1173       C  0.79493108  0.49742876  0.54870445    -0.04000
C1174       C  0.80826716  0.47353681  0.54546732     0.03000
C1175       C  0.85602365  0.47737374  0.61882001     0.09900
C1176       C  0.82837600  0.52549372  0.62500753     0.35800
C1177       C  0.79889006  0.45358171  0.52292222     0.39200
C1178       C  0.88236379  0.48069000  0.61055096    -0.04300
C1179       C  0.90151450  0.47724272  0.63539646     0.02800
C1180       C  0.89440504  0.47099732  0.66905880    -0.04000
C1181       C  0.86808674  0.46623162  0.67682555    -0.00200
C1182       C  0.84900834  0.46913269  0.65167328    -0.02700
C1183       C  0.88969622  0.48869888  0.57670035     0.36500
C1184       C  0.86063316  0.45816135  0.71061168     0.40100
C1185       C  0.92842755  0.48156972  0.62641462     0.39300
C1186       C  0.82203525  0.46408579  0.65963498     0.36200
C1187       C  0.84324511  0.44344899  0.56306131     0.36900
C1188       C  0.78818443  0.53890619  0.57967575     0.40100
N1189       N  0.94981272  0.48495312  0.61879041    -0.37900
N1190       N  0.89561007  0.49507940  0.54971944    -0.39500
N1191       N  0.85464750  0.45165544  0.73753184    -0.37300
N1192       N  0.80049703  0.46003902  0.66586037    -0.39700
N1193       N  0.83316368  0.53914177  0.64730107    -0.39400
N1194       N  0.77690303  0.55805620  0.58381660    -0.37100
N1195       N  0.79173660  0.43666313  0.50619196    -0.38100
N1196       N  0.85471825  0.42433546  0.55960552    -0.39800
C1197       C  0.87594388  0.50648083  0.90975595    -0.04700
C1198       C  0.85060979  0.51048359  0.89795030     0.09400
C1199       C  0.84648426  0.51546136  0.86333374    -0.02100
C1200       C  0.86762939  0.51638193  0.84057103    -0.00400
C1201       C  0.89322900  0.51352354  0.85257729    -0.04000
C1202       C  0.89720435  0.50874378  0.88753396     0.03000
C1203       C  0.82834646  0.50957196  0.92231383     0.09900
C1204       C  0.82043626  0.52006950  0.85130488     0.35800
C1205       C  0.92313514  0.50586573  0.90100430     0.39200
C1206       C  0.82417026  0.53029807  0.94492742    -0.04300
C1207       C  0.80441151  0.52859975  0.96954071     0.02800
C1208       C  0.78772575  0.50682447  0.97058020    -0.04000
C1209       C  0.79103085  0.48681584  0.94658448    -0.00200
C1210       C  0.81196982  0.48764986  0.92359441    -0.02700
C1211       C  0.84018720  0.55344141  0.94267384     0.36500
C1212       C  0.77312870  0.46522689  0.94529350     0.40100
C1213       C  0.80060056  0.54986050  0.99288562     0.39300
C1214       C  0.81729353  0.46555110  0.90199565     0.36200
C1215       C  0.88002262  0.49947071  0.94484142     0.36900
C1216       C  0.86297323  0.52114017  0.80502116     0.40100
N1217       N  0.79771381  0.56733160  0.51084271    -0.37900
N1218       N  0.85292600  0.57191720  0.94072598    -0.39500
N1219       N  0.75937031  0.44754230  0.94322210    -0.37300
N1220       N  0.82180636  0.44785012  0.88500768    -0.39700
N1221       N  0.79962955  0.52380222  0.84181147    -0.39400
N1222       N  0.85926803  0.52478988  0.77661544    -0.37100
N1223       N  0.94376158  0.50392495  0.91197173    -0.38100
N1224       N  0.88313166  0.49363667  0.97274871    -0.39800
C1225       C  0.70790476  0.53403156  0.91189721    -0.04700
C1226       C  0.68902934  0.51440985  0.90841030     0.09400
C1227       C  0.69068437  0.49161055  0.92800546    -0.02100
C1228       C  0.70954825  0.48945465  0.95325527    -0.00400
C1229       C  0.72737842  0.50992046  0.95876731    -0.04000
C1230       C  0.72703622  0.53189900  0.93720183     0.03000
C1231       C  0.66561663  0.51836061  0.88703048     0.09900
C1232       C  0.67200132  0.47084637  0.92324881     0.35800
C1233       C  0.74483171  0.55326486  0.94239941     0.39200
C1234       C  0.66545435  0.50997831  0.85324646    -0.04300
C1235       C  0.64181294  0.50782071  0.83576484     0.02800
C1236       C  0.61822897  0.51441497  0.85195780    -0.04000
C1237       C  0.61887490  0.52543877  0.88465079    -0.00200
C1238       C  0.64245641  0.52702609  0.90226462    -0.02700
C1239       C  0.68963484  0.50317551  0.83683854     0.36500
C1240       C  0.59523688  0.53431794  0.90081357     0.40100
C1241       C  0.64187457  0.49936226  0.80087761     0.39300
C1242       C  0.64280290  0.53655545  0.93671059     0.36200
C1243       C  0.70693537  0.55678841  0.89026748     0.36900
C1244       C  0.70948030  0.46673588  0.97510869     0.40100
N1245       N  0.64197489  0.49274211  0.77298285    -0.37900
N1246       N  0.70903516  0.49800352  0.82381048    -0.39500
N1247       N  0.57643582  0.54165207  0.91357675    -0.37300
N1248       N  0.64308813  0.54406567  0.96421530    -0.39700
N1249       N  0.65706031  0.45435356  0.91937580    -0.39400
N1250       N  0.70944792  0.44870591  0.99264172    -0.37100
N1251       N  0.75858952  0.57083331  0.94572261    -0.38100
N1252       N  0.70621264  0.57485716  0.87283104    -0.39800
C1253       C  0.18325240  0.55026786  0.93634011    -0.04700
C1254       C  0.16860611  0.52755568  0.93122476     0.09400
C1255       C  0.17426977  0.50481379  0.94965781    -0.02100
C1256       C  0.19587098  0.50413633  0.97126169    -0.00400
C1257       C  0.21151320  0.52649928  0.97507879    -0.04000
C1258       C  0.20480266  0.54971882  0.95786173     0.03000
C1259       C  0.14936151  0.52672949  0.90332681     0.09900
C1260       C  0.15855624  0.48172397  0.94492623     0.35800
C1261       C  0.22083105  0.57281123  0.96084212     0.39200
C1262       C  0.15715289  0.51802520  0.87117638    -0.04300
C1263       C  0.13946466  0.51769452  0.84423403     0.02800
C1264       C  0.11336484  0.52539328  0.84947617    -0.04000
C1265       C  0.10572393  0.53410025  0.88220384    -0.00200
C1266       C  0.12380491  0.53502321  0.90873331    -0.02700
C1267       C  0.18353705  0.50917714  0.86596861     0.36500
C1268       C  0.07910849  0.54120939  0.88954560     0.40100
C1269       C  0.14857991  0.50968801  0.81114336     0.39300
C1270       C  0.11610354  0.54418236  0.94191996     0.36200
C1271       C  0.17679007  0.57389397  0.91815984     0.36900
C1272       C  0.20337718  0.47963389  0.98638784     0.40100
N1273       N  0.15597559  0.50319155  0.78486895    -0.37900
N1274       N  0.20453226  0.50198741  0.86199434    -0.39500
N1275       N  0.05793600  0.54689362  0.89563818    -0.37300
N1276       N  0.11003567  0.55151958  0.96838325    -0.39700
N1277       N  0.14596832  0.46335043  0.94108491    -0.39400
N1278       N  0.20907579  0.45971521  0.99772543    -0.37100
N1279       N  0.23359897  0.59122346  0.96316964    -0.38100
N1280       N  0.17157633  0.59273379  0.90370833    -0.39800
C1281       C  0.20500081  0.48477754  0.59484878    -0.04700
C1282       C  0.18405790  0.50203480  0.59929208     0.09400
C1283       C  0.18340073  0.52516648  0.58008592    -0.02100
C1284       C  0.20389087  0.53137580  0.55778342    -0.00400
C1285       C  0.22369113  0.51310157  0.55094090    -0.04000
C1286       C  0.22391486  0.48957653  0.56965328     0.03000
C1287       C  0.16245324  0.49567083  0.62367535     0.09900
C1288       C  0.16127959  0.54239920  0.58264110     0.35800
C1289       C  0.24223358  0.46923859  0.56182139     0.39200
C1290       C  0.15840851  0.51101207  0.65274718    -0.04300
C1291       C  0.13684456  0.50638672  0.67407757     0.02800
C1292       C  0.11978941  0.48527216  0.66770718    -0.04000
C1293       C  0.12515061  0.46876151  0.63989660    -0.00200
C1294       C  0.14566194  0.47455084  0.61737131    -0.02700
C1295       C  0.17633118  0.53190714  0.66045598     0.36500
C1296       C  0.11003811  0.44530707  0.63470904     0.40100
C1297       C  0.13174553  0.52431862  0.70153157     0.39300
C1298       C  0.14906405  0.45912019  0.58705529     0.36200
C1299       C  0.20689199  0.46180571  0.61602898     0.36900
C1300       C  0.20519330  0.55732221  0.54368832     0.40100
N1301       N  0.12767498  0.53873121  0.72329954    -0.37900
N1302       N  0.19059719  0.54860846  0.66649891    -0.39500
N1303       N  0.09815168  0.42648344  0.63069272    -0.37300
N1304       N  0.15184107  0.44688222  0.56284202    -0.39700
N1305       N  0.14357546  0.55607143  0.58447678    -0.39400
N1306       N  0.20585205  0.57849514  0.03381786    -0.37100
N1307       N  0.25598235  0.45205146  0.55620658    -0.38100
N1308       N  0.20836905  0.44351027  0.63296500    -0.39800
C1309       C  0.30835723  0.52599794  0.60573032    -0.04700
C1310       C  0.32764782  0.50704202  0.60018260     0.09400
C1311       C  0.32473433  0.48894556  0.57388063    -0.02100
C1312       C  0.30413401  0.49142295  0.55109028    -0.00400
C1313       C  0.28553203  0.51139786  0.55525853    -0.04000
C1314       C  0.28715644  0.52802431  0.58347317     0.03000
C1315       C  0.35276415  0.50810291  0.61869340     0.09900
C1316       C  0.34390209  0.46867617  0.56906999     0.35800
C1317       C  0.26845976  0.54868341  0.58802745     0.39200
C1318       C  0.35863011  0.48949804  0.64374367    -0.04300
C1319       C  0.38328748  0.48932370  0.65891810     0.02800
C1320       C  0.40228270  0.50756767  0.64873517    -0.04000
C1321       C  0.39648033  0.52592529  0.62330040    -0.00200
C1322       C  0.37175774  0.52633138  0.60855721    -0.02700
C1323       C  0.33930951  0.47041546  0.65357463     0.36500
C1324       C  0.41628379  0.54388415  0.61147240     0.40100
C1325       C  0.38881074  0.47091092  0.68570569     0.39300
C1326       C  0.36597383  0.54526727  0.58244543     0.36200
C1327       C  0.31122121  0.54438753  0.63313912     0.36900
C1328       C  0.30304050  0.47426719  0.52205343     0.40100
N1329       N  0.39319712  0.45626345  0.70714046    -0.37900
N1330       N  0.32389618  0.45509504  0.66113025    -0.39500
N1331       N  0.43215120  0.55806651  0.60196566    -0.37300
N1332       N  0.36131082  0.56043374  0.56173395    -0.39700
N1333       N  0.35913900  0.45244880  0.56549097    -0.39400
N1334       N  0.30222625  0.46062179  0.99890159    -0.37100
N1335       N  0.25373639  0.56531536  0.59207192    -0.38100
N1336       N  0.31357624  0.55918994  0.65485782    -0.39800
C1337       C  0.46819864  0.20274025  0.58134640    -0.04700
C1338       C  0.48866843  0.18505978  0.58602336     0.09400
C1339       C  0.51242871  0.18908460  0.56921961    -0.02100
C1340       C  0.51515267  0.20967214  0.54602539    -0.00400
C1341       C  0.49439259  0.22708603  0.54039492    -0.04000
C1342       C  0.47095357  0.22361843  0.55836459     0.03000
C1343       C  0.48455161  0.16031496  0.60512202     0.09900
C1344       C  0.53358362  0.17098487  0.57434862     0.35800
C1345       C  0.44865247  0.23946709  0.05050168     0.39200
C1346       C  0.47612921  0.13792312  0.58778558    -0.04300
C1347       C  0.47614737  0.11349610  0.60403084     0.02800
C1348       C  0.48552393  0.11122889  0.63733706    -0.04000
C1349       C  0.49267593  0.13396093  0.65520466    -0.00200
C1350       C  0.49169717  0.15848301  0.63926596    -0.02700
C1351       C  0.46844916  0.13996815  0.55270632     0.36500
C1352       C  0.50111596  0.13217943  0.69001521     0.40100
C1353       C  0.46773673  0.09058693  0.58583083     0.39300
C1354       C  0.49831850  0.18185493  0.65773786     0.36200
C1355       C  0.44380808  0.19846771  0.59873782     0.36900
C1356       C  0.53871643  0.21164619  0.52601480     0.40100
N1357       N  0.46088842  0.07233550  0.57135424    -0.37900
N1358       N  0.46245485  0.14172936  0.52469060    -0.39500
N1359       N  0.50797080  0.13076424  0.71772516    -0.37300
N1360       N  0.50332107  0.20056561  0.67251056    -0.39700
N1361       N  0.55035915  0.15647180  0.57849524    -0.39400
N1362       N  0.55746510  0.21312390  0.51001694    -0.37100
N1363       N  0.43033226  0.25142779  0.04436678    -0.38100
N1364       N  0.42432970  0.19501757  0.61258017    -0.39800
C1365       C  0.53227715  0.35174912  0.85362627    -0.04700
C1366       C  0.53178933  0.35999443  0.88762178     0.09400
C1367       C  0.53761383  0.38605466  0.89538044    -0.02100
C1368       C  0.54222588  0.40419566  0.86924722    -0.00400
C1369       C  0.53998895  0.39655534  0.83491106    -0.04000
C1370       C  0.53583960  0.36996944  0.82735582     0.03000
C1371       C  0.52268738  0.34166618  0.91468367     0.09900
C1372       C  0.53738589  0.39454163  0.93028656     0.35800
C1373       C  0.53440151  0.36131167  0.79255196     0.39200
C1374       C  0.54009702  0.33120559  0.93841314    -0.04300
C1375       C  0.53174257  0.31178800  0.96133906     0.02800
C1376       C  0.50614541  0.30205563  0.95986782    -0.04000
C1377       C  0.48876655  0.31281171  0.93611285    -0.00200
C1378       C  0.49666897  0.33334372  0.91486691    -0.02700
C1379       C  0.56702408  0.33921847  0.93773759     0.36500
C1380       C  0.46360324  0.30104646  0.93069047     0.40100
C1381       C  0.55046975  0.29977514  0.98351883     0.39300
C1382       C  0.47830879  0.34506208  0.89175060     0.36200
C1383       C  0.52799285  0.32455489  0.84564103     0.36900
C1384       C  0.54745852  0.43105443  0.87815782     0.40100
N1385       N  0.56594488  0.29031245  0.50056707    -0.37900
N1386       N  0.58850356  0.34561088  0.93713358    -0.39500
N1387       N  0.44370061  0.29159549  0.92536933    -0.37300
N1388       N  0.46378948  0.35442231  0.87321164    -0.39700
N1389       N  0.53722657  0.40129433  0.95812520    -0.39400
N1390       N  0.55172489  0.45242328  0.88537226    -0.37100
N1391       N  0.53292550  0.35444216  0.76482734    -0.38100
N1392       N  0.52446280  0.30290023  0.83925698    -0.39800
C1393       C  0.47205986  0.32556786  0.56305386    -0.04700
C1394       C  0.49141607  0.32785313  0.58780397     0.09400
C1395       C  0.51154966  0.30939186  0.58858078    -0.02100
C1396       C  0.51357553  0.29020268  0.56308777    -0.00400
C1397       C  0.49507787  0.28893225  0.53686130    -0.04000
C1398       C  0.47368726  0.30604224  0.53808829     0.03000
C1399       C  0.49147146  0.35073400  0.61152295     0.09900
C1400       C  0.53020257  0.31021102  0.61577986     0.35800
C1401       C  0.45239318  0.30269017  0.51498369     0.39200
C1402       C  0.48092143  0.34876605  0.64439760    -0.04300
C1403       C  0.48077607  0.37063540  0.66616322     0.02800
C1404       C  0.49085024  0.39484035  0.65502701    -0.04000
C1405       C  0.50146360  0.39663423  0.62204152    -0.00200
C1406       C  0.50186437  0.37472476  0.60057557    -0.02700
C1407       C  0.46978212  0.32429156  0.65548948     0.36500
C1408       C  0.51260279  0.42095819  0.61029179     0.40100
C1409       C  0.46935866  0.36841606  0.69953907     0.39300
C1410       C  0.51304030  0.37679686  0.56699220     0.36200
C1411       C  0.45024053  0.34324887  0.56356845     0.36900
C1412       C  0.53517847  0.27242869  0.56387099     0.40100
N1413       N  0.46020293  0.36659656  0.72616144    -0.37900
N1414       N  0.46086433  0.30471522  0.66416314    -0.39500
N1415       N  0.52146716  0.44036943  0.60091995    -0.37300
N1416       N  0.52192532  0.37831012  0.54018563    -0.39700
N1417       N  0.54487116  0.31069488  0.63774347    -0.39400
N1418       N  0.55295624  0.25888658  0.56580037    -0.37100
N1419       N  0.43455794  0.30011809  0.49778665    -0.38100
N1420       N  0.43277233  0.35728203  0.56406698    -0.39800
C1421       C  0.51120939  0.80338200  0.90435043    -0.04700
C1422       C  0.49065872  0.81982498  0.89496638     0.09400
C1423       C  0.46601090  0.81624839  0.90957600    -0.02100
C1424       C  0.46262160  0.79838944  0.93618042    -0.00400
C1425       C  0.48371332  0.78316271  0.94757665    -0.04000
C1426       C  0.50783510  0.78516410  0.93076838     0.03000
C1427       C  0.49553610  0.84351040  0.87390746     0.09900
C1428       C  0.44448053  0.83222576  0.89862064     0.35800
C1429       C  0.53006224  0.77093121  0.94298379     0.39200
C1430       C  0.48738390  0.84445229  0.84008324    -0.04300
C1431       C  0.48733634  0.86832994  0.82249920     0.02800
C1432       C  0.49656108  0.89125775  0.83822202    -0.04000
C1433       C  0.50686974  0.88972272  0.87115006    -0.00200
C1434       C  0.50558735  0.86610687  0.88927830    -0.02700
C1435       C  0.47834959  0.82092415  0.82381154     0.36500
C1436       C  0.51766945  0.91262797  0.88710665     0.40100
C1437       C  0.47760252  0.86926304  0.78822543     0.39300
C1438       C  0.51308430  0.86537128  0.92452928     0.36200
C1439       C  0.53622286  0.80631539  0.88804249     0.36900
C1440       C  0.43782626  0.79729154  0.45357051     0.40100
N1441       N  0.46967683  0.87006371  0.76097324    -0.37900
N1442       N  0.47124360  0.80210515  0.81084308    -0.39500
N1443       N  0.52653897  0.93078790  0.89981776    -0.37300
N1444       N  0.51875479  0.86469051  0.95274000    -0.39700
N1445       N  0.42734723  0.84491360  0.88969340    -0.39400
N1446       N  0.41809955  0.79659656  0.46750651    -0.37100
N1447       N  0.54825996  0.76010235  0.95239094    -0.38100
N1448       N  0.55619711  0.80861216  0.87503734    -0.39800
C1449       C  0.47423290  0.66520465  0.65454642    -0.04700
C1450       C  0.48326315  0.65977313  0.62155529     0.09400
C1451       C  0.49117657  0.63437726  0.61323986    -0.02100
C1452       C  0.48904855  0.61426414  0.63721775    -0.00400
C1453       C  0.48091640  0.61981541  0.67058695    -0.04000
C1454       C  0.47351391  0.64535808  0.67916846     0.03000
C1455       C  0.48405457  0.68062668  0.59521491     0.09900
C1456       C  0.50234572  0.62917157  0.58023431     0.35800
C1457       C  0.46448215  0.65103608  0.71308801     0.39200
C1458       C  0.50207844  0.70110729  0.59763041    -0.04300
C1459       C  0.50186001  0.72142208  0.57376906     0.02800
C1460       C  0.48452145  0.72069725  0.54609821    -0.04000
C1461       C  0.46706887  0.69968846  0.54316677    -0.00200
C1462       C  0.46671109  0.67985123  0.56778856    -0.02700
C1463       C  0.52080030  0.70130748  0.62483994     0.36500
C1464       C  0.44807125  0.69921905  0.51642530     0.40100
C1465       C  0.51933638  0.74329659  0.57816941     0.39300
C1466       C  0.44793818  0.65891619  0.56544515     0.36200
C1467       C  0.46592766  0.69126874  0.66325518     0.36900
C1468       C  0.49568655  0.58797227  0.62734628     0.40100
N1469       N  0.53319557  0.76074599  0.58188848    -0.37900
N1470       N  0.53567149  0.70145939  0.64658471    -0.39500
N1471       N  0.43253218  0.69827000  0.99554784    -0.37300
N1472       N  0.43307066  0.64214049  0.56354324    -0.39700
N1473       N  0.51139788  0.62517100  0.55398567    -0.39400
N1474       N  0.50071092  0.56712960  0.61863530    -0.37100
N1475       N  0.45724450  0.65549518  0.74014758    -0.38100
N1476       N  0.45951483  0.71210671  0.67031862    -0.39800
C1477       C  0.47992278  0.69668619  0.91737557    -0.04700
C1478       C  0.50218845  0.68129216  0.92212405     0.09400
C1479       C  0.51876301  0.68687635  0.94939105    -0.02100
C1480       C  0.51345775  0.70793556  0.97122731    -0.00400
C1481       C  0.49118775  0.72354570  0.96652888    -0.04000
C1482       C  0.47440817  0.71758371  0.93939996     0.03000
C1483       C  0.50818969  0.65919814  0.89838044     0.09900
C1484       C  0.54147512  0.67091138  0.95492748     0.35800
C1485       C  0.45052515  0.73177672  0.93492608     0.39200
C1486       C  0.51621713  0.66426909  0.86483049    -0.04300
C1487       C  0.52122765  0.64356368  0.84226041     0.02800
C1488       C  0.51954570  0.61742197  0.85344867    -0.04000
C1489       C  0.51219249  0.61246070  0.88748543    -0.00200
C1490       C  0.50586369  0.63317191  0.90939707    -0.02700
C1491       C  0.51956687  0.69094540  0.85364056     0.36500
C1492       C  0.51042496  0.58598264  0.90008331     0.40100
C1493       C  0.52865842  0.64934944  0.80769520     0.39300
C1494       C  0.49638764  0.62767546  0.94323850     0.36200
C1495       C  0.46231361  0.69061901  0.89006009     0.36900
C1496       C  0.53184686  0.71407579  0.49746251     0.40100
N1497       N  0.53442341  0.65403204  0.78007163    -0.37900
N1498       N  0.52219314  0.71226710  0.84486224    -0.39500
N1499       N  0.50925585  0.56490519  0.91028825    -0.37300
N1500       N  0.48879338  0.62330911  0.97019884    -0.39700
N1501       N  0.55941836  0.65798478  0.95955252    -0.39400
N1502       N  0.54720659  0.71851873  0.51780267    -0.37100
N1503       N  0.43099811  0.74217561  0.93055302    -0.38100
N1504       N  0.44835979  0.68582219  0.86817590    -0.39800
C1505       C  0.19260278  0.00998448  0.58449616    -0.04700
C1506       C  0.17560003  0.98867699  0.58775796     0.09400
C1507       C  0.17864254  0.96676646  0.56693432    -0.02100
C1508       C  0.19766907  0.96678689  0.54147536    -0.00400
C1509       C  0.21376762  0.98882253  0.53662566    -0.04000
C1510       C  0.21140627  0.01029532  0.55857651     0.03000
C1511       C  0.15197066  0.99083393  0.60917898     0.09900
C1512       C  0.16079456  0.94504649  0.57004922     0.35800
C1513       C  0.22595909  0.03392022  0.55239361     0.39200
C1514       C  0.12985933  0.00313544  0.59591158    -0.04300
C1515       C  0.10667329  0.00356664  0.61463862     0.02800
C1516       C  0.10526018  0.99081499  0.64626429    -0.04000
C1517       C  0.12764987  0.97900150  0.65981340    -0.00200
C1518       C  0.15103190  0.97926530  0.64139240    -0.02700
C1519       C  0.13083950  0.01462449  0.56240596     0.36500
C1520       C  0.12682688  0.96711925  0.69306276     0.40100
C1521       C  0.08415349  0.01649539  0.60075339     0.39300
C1522       C  0.17413171  0.96756863  0.65538967     0.36200
C1523       C  0.18941853  0.03233181  0.60638153     0.36900
C1524       C  0.19929264  0.94483981  0.51856640     0.40100
N1525       N  0.06632776  0.02701531  0.58966249    -0.37900
N1526       N  0.13174174  0.02361964  0.53561872    -0.39500
N1527       N  0.12608790  0.95766374  0.71959096    -0.37300
N1528       N  0.19260648  0.95833732  0.66659430    -0.39700
N1529       N  0.14640748  0.92786671  0.57246466    -0.39400
N1530       N  0.20047487  0.92743586  0.50017550    -0.37100
N1531       N  0.23680048  0.05334400  0.54803459    -0.38100
N1532       N  0.18676557  0.05014409  0.62382845    -0.39800
C1533       C  0.33652835  0.97168682  0.84123525    -0.04700
C1534       C  0.34432324  0.97226896  0.87534111     0.09400
C1535       C  0.37062058  0.96894909  0.88337941    -0.02100
C1536       C  0.38923317  0.96632948  0.85742031    -0.00400
C1537       C  0.38180080  0.96853861  0.82301369    -0.04000
C1538       C  0.35515948  0.97037897  0.81516670     0.03000
C1539       C  0.32475733  0.97759037  0.90246131     0.09900
C1540       C  0.37862498  0.96916569  0.91843693     0.35800
C1541       C  0.34673460  0.97066615  0.78027586     0.39200
C1542       C  0.31591400  0.95748058  0.92392179    -0.04300
C1543       C  0.29546139  0.96209306  0.94691168     0.02800
C1544       C  0.28318797  0.98662865  0.94776610    -0.04000
C1545       C  0.29161113  0.00640303  0.92537272    -0.00200
C1546       C  0.31329623  0.00239767  0.90445364    -0.02700
C1547       C  0.32683297  0.93163130  0.92087604     0.36500
C1548       C  0.27640582  0.02983685  0.92095623     0.40100
C1549       C  0.28503618  0.94057670  0.96639396     0.39300
C1550       C  0.32332291  0.02363070  0.88400750     0.36200
C1551       C  0.30920396  0.97268466  0.83303218     0.36900
C1552       C  0.41606968  0.96215560  0.86657502     0.40100
N1553       N  0.27675448  0.92293059  0.48105617    -0.37900
N1554       N  0.33550929  0.91100198  0.91835674    -0.39500
N1555       N  0.26400285  0.04824327  0.91660231    -0.37300
N1556       N  0.33141429  0.04061061  0.86787713    -0.39700
N1557       N  0.38497213  0.96933220  0.94640486    -0.39400
N1558       N  0.43737868  0.95845339  0.87402421    -0.37100
N1559       N  0.33997210  0.97096126  0.75247067    -0.38100
N1560       N  0.28739566  0.97340218  0.82661630    -0.39800
C1561       C  0.33248606  0.01025408  0.63286628    -0.04700
C1562       C  0.33612121  0.00195514  0.59922051     0.09400
C1563       C  0.36144451  0.99769465  0.58706689    -0.02100
C1564       C  0.38303890  0.00247993  0.60788283    -0.00400
C1565       C  0.37958611  0.01145640  0.64145228    -0.04000
C1566       C  0.35408532  0.01505093  0.65387536     0.03000
C1567       C  0.31362281  0.99937826  0.57545748     0.09900
C1568       C  0.36516420  0.98823382  0.55290190     0.35800
C1569       C  0.35002207  0.02476062  0.68781758     0.39200
C1570       C  0.30868957  0.01933325  0.55190507    -0.04300
C1571       C  0.28907121  0.01639224  0.52755314     0.02800
C1572       C  0.27423871  0.99330760  0.52604116    -0.04000
C1573       C  0.27869141  0.97359811  0.55031877    -0.00200
C1574       C  0.29835667  0.97660275  0.57482985    -0.02700
C1575       C  0.32407701  0.04295173  0.55262584     0.36500
C1576       C  0.26354554  0.94993951  0.54991321     0.40100
C1577       C  0.28332146  0.03792409  0.00531565     0.39300
C1578       C  0.30332657  0.95603000  0.59901182     0.36200
C1579       C  0.30647241  0.01407574  0.64574431     0.36900
C1580       C  0.40880238  0.99749043  0.59471579     0.40100
N1581       N  0.27886469  0.05592129  0.98879625    -0.37900
N1582       N  0.33646004  0.06171032  0.55315905    -0.39500
N1583       N  0.25190240  0.93070631  0.55039278    -0.37300
N1584       N  0.30731305  0.93963542  0.61834671    -0.39700
N1585       N  0.36787686  0.98064878  0.52564459    -0.39400
N1586       N  0.42929445  0.99352049  0.58402642    -0.37100
N1587       N  0.34685725  0.03259792  0.71487840    -0.38100
N1588       N  0.28571027  0.01697674  0.65612200    -0.39800
C1589       C  0.85872818  0.02472259  0.88973293    -0.04700
C1590       C  0.83978253  0.00695300  0.87869454     0.09400
C1591       C  0.84614407  0.98820131  0.85419280    -0.02100
C1592       C  0.87159759  0.98690414  0.84113767    -0.00400
C1593       C  0.89051042  0.00511479  0.85166516    -0.04000
C1594       C  0.88384084  0.02409990  0.87592691     0.03000
C1595       C  0.81410603  0.00646159  0.89607884     0.09900
C1596       C  0.82640067  0.97030481  0.84259191     0.35800
C1597       C  0.90303211  0.04257088  0.88766626     0.39200
C1598       C  0.79457662  0.02423061  0.88700750    -0.04300
C1599       C  0.77318997  0.02828892  0.90871776     0.02800
C1600       C  0.77118160  0.01421386  0.93932146    -0.04000
C1601       C  0.78980853  0.99483184  0.94673782    -0.00200
C1602       C  0.81110975  0.99098701  0.92515948    -0.02700
C1603       C  0.79742762  0.03950054  0.85638418     0.36500
C1604       C  0.78810357  0.97996735  0.47790213     0.40100
C1605       C  0.75496131  0.04874663  0.90090286     0.39300
C1606       C  0.83112975  0.97250468  0.93419805     0.36200
C1607       C  0.85253701  0.04318288  0.91621449     0.36900
C1608       C  0.87809028  0.96704627  0.81660969     0.40100
N1609       N  0.74094506  0.06537745  0.89382618    -0.37900
N1610       N  0.79966740  0.05170398  0.83195829    -0.39500
N1611       N  0.78686759  0.96822055  0.50281413    -0.37300
N1612       N  0.84724001  0.95791945  0.94130519    -0.39700
N1613       N  0.81048861  0.95619477  0.83334696    -0.39400
N1614       N  0.88319177  0.95100611  0.79727010    -0.37100
N1615       N  0.91819445  0.05742209  0.89706712    -0.38100
N1616       N  0.84763553  0.05775034  0.93750218    -0.39800
C1617       C  0.66692322  0.05540340  0.55568290    -0.04700
C1618       C  0.65361491  0.03224912  0.56344071     0.09400
C1619       C  0.65964103  0.00925105  0.54585125    -0.02100
C1620       C  0.68046985  0.00884977  0.52263592    -0.00400
C1621       C  0.69530476  0.03160330  0.51677881    -0.04000
C1622       C  0.68792300  0.05506436  0.53293020     0.03000
C1623       C  0.63487300  0.03176009  0.59230567     0.09900
C1624       C  0.64524684  0.98561902  0.55310344     0.35800
C1625       C  0.70300080  0.07863444  0.52811159     0.39200
C1626       C  0.60808525  0.03226042  0.58630977    -0.04300
C1627       C  0.59051506  0.03270145  0.61362915     0.02800
C1628       C  0.59967438  0.03232343  0.64741791    -0.04000
C1629       C  0.62665985  0.03198967  0.65325089    -0.00200
C1630       C  0.64413975  0.03151809  0.62578800    -0.02700
C1631       C  0.59862746  0.03177242  0.55188062     0.36500
C1632       C  0.63658030  0.03290503  0.68742681     0.40100
C1633       C  0.56298214  0.03274469  0.60652897     0.39300
C1634       C  0.67178343  0.03037258  0.63188325     0.36200
C1635       C  0.65961794  0.07939351  0.57239061     0.36900
C1636       C  0.68797016  0.98423993  0.50797225     0.40100
N1637       N  0.54107982  0.03297395  0.60058813    -0.37900
N1638       N  0.59111062  0.03110415  0.52443013    -0.39500
N1639       N  0.64458793  0.03376179  0.71463306    -0.37300
N1640       N  0.69384321  0.02939208  0.63658330    -0.39700
N1641       N  0.63371156  0.96679773  0.55881555    -0.39400
N1642       N  0.69318278  0.96399107  0.49733002    -0.37100
N1643       N  0.71508062  0.09743553  0.02470217    -0.38100
N1644       N  0.65370268  0.09845457  0.58579150    -0.39800
C1645       C  0.67344006  0.03016443  0.90601572    -0.04700
C1646       C  0.67118826  0.00480445  0.89284581     0.09400
C1647       C  0.68947556  0.98578298  0.90227755    -0.02100
C1648       C  0.70875647  0.99163828  0.92635879    -0.00400
C1649       C  0.70962265  0.01645843  0.94166733    -0.04000
C1650       C  0.69236222  0.03588398  0.93043195     0.03000
C1651       C  0.64845375  0.99796771  0.87095801     0.09900
C1652       C  0.68815522  0.95999888  0.88765556     0.35800
C1653       C  0.69476305  0.06222829  0.94277447     0.39200
C1654       C  0.65158208  0.99335917  0.83604892    -0.04300
C1655       C  0.62987053  0.98765038  0.81569490     0.02800
C1656       C  0.60455296  0.98787510  0.82969636    -0.04000
C1657       C  0.60153650  0.99305561  0.86468898    -0.00200
C1658       C  0.62336578  0.99729784  0.88523185    -0.02700
C1659       C  0.67711105  0.99525579  0.82087304     0.36500
C1660       C  0.57593219  0.99565351  0.87954214     0.40100
C1661       C  0.63379461  0.98106952  0.78046394     0.39300
C1662       C  0.61997545  0.00162022  0.92121115     0.36200
C1663       C  0.65611578  0.05042932  0.89437350     0.36900
C1664       C  0.72675229  0.97155919  0.93636440     0.40100
N1665       N  0.63694518  0.97569100  0.75239686    -0.37900
N1666       N  0.69748137  0.99686315  0.80877704    -0.39500
N1667       N  0.55555852  0.99795315  0.89141311    -0.37300
N1668       N  0.61738331  0.00522780  0.94985177    -0.39700
N1669       N  0.68729656  0.93950466  0.87573053    -0.39400
N1670       N  0.74059010  0.95491692  0.44398596    -0.37100
N1671       N  0.69658642  0.08357822  0.95155000    -0.38100
N1672       N  0.64224389  0.06652500  0.88505825    -0.39800
C1673       C  0.98790135  0.15364161  0.86455650    -0.04700
C1674       C  0.98484541  0.14491457  0.89814397     0.09400
C1675       C  0.98090985  0.11833890  0.90480599    -0.02100
C1676       C  0.98110354  0.10030331  0.87807658    -0.00400
C1677       C  0.98369556  0.10897458  0.84413795    -0.04000
C1678       C  0.98664248  0.13586047  0.83757629     0.03000
C1679       C  0.98579756  0.16401993  0.92640920     0.09900
C1680       C  0.97678538  0.10962153  0.93928447     0.35800
C1681       C  0.98748269  0.14544438  0.80312665     0.39200
C1682       C  0.96325775  0.17755668  0.93574479    -0.04300
C1683       C  0.96482129  0.19869649  0.95812179     0.02800
C1684       C  0.98891649  0.20594348  0.97227447    -0.04000
C1685       C  0.01137759  0.19173791  0.96361429    -0.00200
C1686       C  0.00968804  0.17053565  0.94119396    -0.02700
C1687       C  0.93858915  0.17037534  0.92109357     0.36500
C1688       C  0.03668204  0.20081253  0.97392478     0.40100
C1689       C  0.94185886  0.21418625  0.96439551     0.39300
C1690       C  0.03275660  0.15617135  0.93185091     0.36200
C1691       C  0.99259826  0.18100421  0.85790033     0.36900
C1692       C  0.98005203  0.07274991  0.88594680     0.40100
N1693       N  0.92359000  0.22668636  0.96900972    -0.37900
N1694       N  0.91890015  0.16463566  0.90946586    -0.39500
N1695       N  0.05719211  0.20794631  0.98097812    -0.37300
N1696       N  0.05108746  0.14461762  0.92436188    -0.39700
N1697       N  0.97330582  0.10275889  0.96678027    -0.39400
N1698       N  0.97939538  0.05080881  0.89244251    -0.37100
N1699       N  0.98788143  0.15322446  0.77569346    -0.38100
N1700       N  0.99654493  0.20282112  0.85281450    -0.39800
C1701       C  0.03507049  0.19298701  0.58509052    -0.04700
C1702       C  0.01495872  0.17615866  0.59565634     0.09400
C1703       C  0.98973868  0.18011122  0.58322668    -0.02100
C1704       C  0.98497407  0.19953959  0.55888315    -0.00400
C1705       C  0.00515026  0.21603048  0.54751117    -0.04000
C1706       C  0.03006047  0.21321158  0.56170123     0.03000
C1707       C  0.02029520  0.15319801  0.61817565     0.09900
C1708       C  0.96855103  0.16417929  0.59580081     0.35800
C1709       C  0.05073431  0.23074652  0.55201227     0.39200
C1710       C  0.02496114  0.15639059  0.65302648    -0.04300
C1711       C  0.02889358  0.13444241  0.67406034     0.02800
C1712       C  0.02656711  0.10893759  0.66083207    -0.04000
C1713       C  0.02121645  0.10596645  0.62587675    -0.00200
C1714       C  0.01903190  0.12789546  0.60465676    -0.02700
C1715       C  0.02473976  0.18226448  0.66746334     0.36500
C1716       C  0.01614415  0.08046351  0.61170195     0.40100
C1717       C  0.03575873  0.13829139  0.70914671     0.39300
C1718       C  0.01467610  0.12443057  0.56874485     0.36200
C1719       C  0.06105748  0.18907848  0.59772994     0.36900
C1720       C  0.95872892  0.20367876  0.54752485     0.40100
N1721       N  0.04142278  0.14139473  0.73707741    -0.37900
N1722       N  0.02434804  0.20290365  0.67900530    -0.39500
N1723       N  0.01184307  0.06019292  0.60040592    -0.37300
N1724       N  0.01108386  0.12174988  0.54015348    -0.39700
N1725       N  0.95168835  0.15147475  0.60588494    -0.39400
N1726       N  0.93739341  0.20675985  0.53983548    -0.37100
N1727       N  0.06761958  0.24451912  0.04479810    -0.38100
N1728       N  0.08178146  0.18593282  0.60786739    -0.39800
C1729       C  0.99520512  0.36353496  0.60584753    -0.04700
C1730       C  0.01522534  0.34621816  0.61466883     0.09400
C1731       C  0.03338930  0.35329917  0.63937270    -0.02100
C1732       C  0.03135859  0.37756904  0.65564925    -0.00400
C1733       C  0.01061412  0.39448067  0.64790815    -0.04000
C1734       C  0.99269829  0.38745341  0.62267272     0.03000
C1735       C  0.01709564  0.32072444  0.59704984     0.09900
C1736       C  0.05387837  0.33537363  0.64828684     0.35800
C1737       C  0.97197813  0.40507492  0.61341804     0.39200
C1738       C  0.03189701  0.31873216  0.56731380    -0.04300
C1739       C  0.02866204  0.29714766  0.54604311     0.02800
C1740       C  0.00999668  0.27777081  0.55395677    -0.04000
C1741       C  0.99737215  0.27845513  0.58568466    -0.00200
C1742       C  0.00122715  0.29983281  0.60735753    -0.02700
C1743       C  0.04901013  0.33984785  0.55743163     0.36500
C1744       C  0.97876438  0.25870486  0.59529808     0.40100
C1745       C  0.04323347  0.29586940  0.51463955     0.39300
C1746       C  0.98761792  0.30123850  0.63941698     0.36200
C1747       C  0.97727563  0.35674589  0.57917078     0.36900
C1748       C  0.05020355  0.38472456  0.68101690     0.40100
N1749       N  0.05473452  0.29486692  0.98953953    -0.37900
N1750       N  0.06257567  0.35675113  0.54954413    -0.39500
N1751       N  0.96373767  0.24351966  0.60445906    -0.37300
N1752       N  0.97683922  0.30236252  0.66504132    -0.39700
N1753       N  0.07013843  0.32095586  0.65538706    -0.39400
N1754       N  0.06533353  0.39049521  0.70110446    -0.37100
N1755       N  0.95543776  0.41910158  0.60608461    -0.38100
N1756       N  0.96308262  0.35134955  0.55778941    -0.39800
C1757       C  0.00035633  0.83949587  0.64728631    -0.04700
C1758       C  0.99906996  0.84740418  0.61317125     0.09400
C1759       C  0.00641939  0.87293196  0.60428445    -0.02100
C1760       C  0.01344521  0.89096801  0.62947968    -0.00400
C1761       C  0.01285593  0.88368505  0.66407453    -0.04000
C1762       C  0.00740331  0.85744767  0.67258396     0.03000
C1763       C  0.98995698  0.82874811  0.58661754     0.09900
C1764       C  0.00601442  0.88084700  0.56912434     0.35800
C1765       C  0.00957037  0.84867862  0.70730765     0.39200
C1766       C  0.96343935  0.82255274  0.58393847    -0.04300
C1767       C  0.95509996  0.80324237  0.56111118     0.02800
C1768       C  0.97315914  0.79036579  0.53997369    -0.04000
C1769       C  0.99969374  0.79696867  0.54246531    -0.00200
C1770       C  0.00795590  0.81626691  0.56533759    -0.02700
C1771       C  0.94479365  0.83560348  0.60548817     0.36500
C1772       C  0.01909679  0.78187315  0.52485117     0.40100
C1773       C  0.92807736  0.79560678  0.56110912     0.39300
C1774       C  0.03526527  0.82243319  0.56821925     0.36200
C1775       C  0.99408585  0.81286549  0.65637329     0.36900
C1776       C  0.02025578  0.91728105  0.61952282     0.40100
N1777       N  0.90650665  0.78954180  0.56192574    -0.37900
N1778       N  0.92995816  0.84598375  0.62275437    -0.39500
N1779       N  0.03532931  0.76991474  0.01210248    -0.37300
N1780       N  0.05702767  0.82742592  0.57048463    -0.39700
N1781       N  0.00577488  0.88711229  0.54105760    -0.39400
N1782       N  0.02585908  0.93820337  0.61148228    -0.37100
N1783       N  0.01146436  0.84159471  0.73493992    -0.38100
N1784       N  0.98898605  0.79164327  0.66358879    -0.39800
C1785       C  0.99203474  0.80352677  0.91412724    -0.04700
C1786       C  0.97056263  0.82006345  0.91023678     0.09400
C1787       C  0.94817014  0.81596757  0.92987516    -0.02100
C1788       C  0.94793558  0.79665301  0.95510229    -0.00400
C1789       C  0.97009391  0.78119591  0.96088968    -0.04000
C1790       C  0.99167267  0.78382541  0.93902219     0.03000
C1791       C  0.97193536  0.84292930  0.88703224     0.09900
C1792       C  0.92523767  0.83145632  0.92361179     0.35800
C1793       C  0.01326549  0.76608919  0.94113198     0.39200
C1794       C  0.96475290  0.84065423  0.85288984    -0.04300
C1795       C  0.96454528  0.86283024  0.83181926     0.02800
C1796       C  0.97168212  0.88740503  0.84484560    -0.04000
C1797       C  0.97938875  0.88941564  0.87905664    -0.00200
C1798       C  0.97935175  0.86727265  0.90001242    -0.02700
C1799       C  0.95715907  0.81552446  0.83970062     0.36500
C1800       C  0.98799457  0.91410195  0.89275716     0.40100
C1801       C  0.95593691  0.86047600  0.79716738     0.39300
C1802       C  0.98676226  0.86945664  0.93520365     0.36200
C1803       C  0.01444505  0.80684379  0.89234612     0.36900
C1804       C  0.92415006  0.79139223  0.97334086     0.40100
N1805       N  0.94902105  0.85868469  0.76952982    -0.37900
N1806       N  0.95112403  0.79544722  0.82920972    -0.39500
N1807       N  0.99484939  0.93372295  0.90384501    -0.37300
N1808       N  0.99257799  0.87101290  0.96329527    -0.39700
N1809       N  0.90695567  0.84372387  0.91827734    -0.39400
N1810       N  0.90472702  0.78714010  0.48691459    -0.37100
N1811       N  0.03080221  0.75213819  0.94145819    -0.38100
N1812       N  0.03224611  0.80947052  0.87482536    -0.39800
C1813       C  0.00082626  0.68357629  0.93658470    -0.04700
C1814       C  0.98604164  0.68093455  0.90700658     0.09400
C1815       C  0.96669963  0.69940107  0.89958584    -0.02100
C1816       C  0.96011522  0.71864159  0.92355534    -0.00400
C1817       C  0.97367666  0.72002232  0.95436390    -0.04000
C1818       C  0.99496402  0.70330016  0.95987039     0.03000
C1819       C  0.98859107  0.65665314  0.88657196     0.09900
C1820       C  0.95305477  0.69788837  0.86777163     0.35800
C1821       C  0.01060006  0.70605985  0.99001497     0.39200
C1822       C  0.97133124  0.63590697  0.89263170    -0.04300
C1823       C  0.97601239  0.61123685  0.87847213     0.02800
C1824       C  0.99742046  0.60736477  0.85638281    -0.04000
C1825       C  0.01346772  0.62904468  0.84823775    -0.00200
C1826       C  0.00943359  0.65330662  0.86401719    -0.02700
C1827       C  0.94881422  0.63994008  0.91404698     0.36500
C1828       C  0.03367239  0.62693791  0.82282047     0.40100
C1829       C  0.95909585  0.58985072  0.88800418     0.39300
C1830       C  0.02682863  0.67489615  0.85727848     0.36200
C1831       C  0.02120496  0.66507100  0.94396838     0.36900
C1832       C  0.93851655  0.73582934  0.41720281     0.40100
N1833       N  0.94550047  0.57294369  0.89581078    -0.37900
N1834       N  0.93071872  0.64333765  0.93076875    -0.39500
N1835       N  0.04968224  0.62538180  0.80239361    -0.37300
N1836       N  0.04076289  0.69208921  0.85201686    -0.39700
N1837       N  0.94235232  0.69668542  0.84223366    -0.39400
N1838       N  0.92114026  0.74930212  0.41163427    -0.37100
N1839       N  0.02312449  0.70838611  0.01395190    -0.38100
N1840       N  0.03741080  0.65028273  0.94991242    -0.39800
loop_ 
_geom_bond_atom_site_label_1 
_geom_bond_atom_site_label_2 
_geom_bond_distance 
_geom_bond_site_symmetry_2 
_ccdc_geom_bond_type 
N1            C2   1.358       .  A
N1          C925   1.364       .  A
N1          C869   1.447       .  S
C2          C897   1.488       .  S
C2          C923   1.383       .  A
C3            C4   1.372       .  A
C3          C922   1.383   1_554  A
C3            H6   1.082       .  S
C4            C5   1.381       .  A
C4            H7   1.082       .  S
C5          N921   1.364   1_554  A
C5          C848   1.496       .  S
N8            C9   1.363       .  A
N8          C932   1.364   1_554  A
N8          C785   1.452   1_655  S
C9          C820   1.489   1_655  S
C9          C930   1.384   1_554  A
C10          C11   1.365       .  A
C10         C929   1.384       .  A
C10          H13   1.083       .  S
C11          C12   1.379       .  A
C11          H14   1.082       .  S
C12         N928   1.364       .  A
C12         C764   1.488       .  S
N15          C16   1.363       .  A
N15         C939   1.366       .  A
N15         C729   1.452       .  S
C16         C680   1.489       .  S
C16         C937   1.382       .  A
C17          C18   1.365   1_556  A
C17         C936   1.382       .  A
C17          H20   1.083   1_556  S
C18          C19   1.381       .  A
C18          H21   1.082       .  S
C19         N935   1.366   1_554  A
C19         C701   1.493       .  S
N22          C23   1.360       .  A
N22         C946   1.363   1_554  A
N22         C652   1.454       .  S
C23         C589   1.483       .  S
C23         C944   1.382   1_554  A
C24          C25   1.367       .  A
C24         C943   1.382       .  A
C24          H27   1.082       .  S
C25          C26   1.380       .  A
C25          H28   1.082       .  S
C26         N942   1.363       .  A
C26         C624   1.485       .  S
N29          C30   1.365       .  A
N29         C953   1.367       .  A
N29         C561   1.459       .  S
C30         C505   1.489       .  S
C30         C951   1.381       .  A
C31          C32   1.364       .  A
C31         C950   1.381   1_554  A
C31          H34   1.082       .  S
C32          C33   1.381       .  A
C32          H35   1.082       .  S
C33         N949   1.367   1_554  A
C33         C540   1.489       .  S
N36          C37   1.364       .  A
N36         C960   1.366   1_554  A
N36         C477   1.457       .  S
C37         C421   1.485       .  S
C37         C958   1.381   1_554  A
C38          C39   1.366       .  A
C38         C957   1.381       .  A
C38          H41   1.082       .  S
C39          C40   1.380       .  A
C39          H42   1.082       .  S
C40         N956   1.366       .  A
C40         C456   1.488       .  S
N43          C44   1.365       .  A
N43         C967   1.366   1_554  A
N43         C365   1.457       .  S
C44         C393   1.487       .  S
C44         C965   1.382   1_554  A
C45          C46   1.364       .  A
C45         C964   1.382       .  A
C45          H48   1.083       .  S
C46          C47   1.380       .  A
C46          H49   1.082       .  S
C47         N963   1.366       .  A
C47         C337   1.488       .  S
N50          C51   1.361       .  A
N50         C974   1.364       .  A
N50         C288   1.447       .  S
C51         C309   1.489       .  S
C51         C972   1.382       .  A
C52          C53   1.369       .  A
C52         C971   1.382   1_554  A
C52          H55   1.082       .  S
C53          C54   1.382       .  A
C53          H56   1.082       .  S
C54         N970   1.364   1_554  A
C54         C253   1.494       .  S
O57         Mg59   2.152       .  S
O57         Mg65   2.138       .  S
O57          C92   1.240       .  S
C58          H97   1.081       .  S
C58          O71   1.237       .  S
C58          O95   1.270       .  A
Mg59         O88   2.139       .  S
Mg59        O103   2.327       .  S
Mg59         O99   2.280       .  S
Mg59         O70   2.297       .  S
O60        Mg102   2.133       .  S
O60         Mg85   2.115       .  S
O60          C81   1.240       .  S
O61          C92   1.276       .  A
O61         Mg85   2.319       .  S
C62         C449   1.494       .  S
C62          O64   1.274       .  A
C62          O76   1.276       .  A
O63          C91   1.273       .  A
O63         Mg65   2.302       .  S
O64         Mg96   2.258       .  S
Mg65         O71   2.128       .  S
Mg65         O79   2.231       .  S
Mg65         O67   2.295       .  S
C66         C316   1.489       .  S
C66         O104   1.275       .  A
C66          O72   1.273       .  A
O67          C74   1.272       .  A
H68          C81   1.081       .  S
C69          H94   1.080       .  S
C69          O83   1.239       .  S
C69          O84   1.273       .  A
O70          C93   1.270       .  A
O71         Mg85   2.130       .  S
O72        Mg102   2.290       .  S
C73         C568   1.502       .  S
C73          O86   1.273       .  A
C73          O78   1.280       .  A
C74         C533   1.480       .  S
C74         O101   1.270       .  A
Mg75         O82   2.148       .  S
Mg75         O83   2.145       .  S
Mg75         O76   2.299       .  S
Mg75         O77   2.295       .  S
Mg75        O104   2.283       .  S
O77          C81   1.273       .  A
O78         Mg85   2.342       .  S
O79          C98   1.268       .  A
O80         C100   1.282       .  A
O80         Mg96   2.358       .  S
O82         Mg96   2.151       .  S
O82          C93   1.236       .  S
O83        Mg102   2.135       .  S
O84         Mg96   2.302       .  S
Mg85        O101   2.258       .  S
O86        Mg102   2.269       .  S
H87          C92   1.080       .  S
O88         Mg96   2.129       .  S
O88          C91   1.239       .  S
H89          C91   1.080       .  S
H90          C93   1.080       .  S
O95        Mg102   2.298       .  S
C98         C400   1.481       .  S
C98         O103   1.276       .  A
O99         C100   1.276       .  A
C100        C484   1.501       .  S
O105       Mg107   2.136       .  S
O105       Mg113   2.142       .  S
O105        C140   1.240       .  S
C106        H145   1.078       .  S
C106        O119   1.237       .  S
C106        O143   1.271       .  A
Mg107       O136   2.138       .  S
Mg107       O151   2.323       .  S
Mg107       O147   2.277       .  S
Mg107       O118   2.299   1_545  S
O108       Mg150   2.138       .  S
O108       Mg133   2.131       .  S
O108        C129   1.238       .  S
O109        C140   1.274   1_565  A
O109       Mg133   2.303       .  S
C110        C617   1.496       .  S
C110        O112   1.273       .  A
C110        O124   1.273       .  A
O111        C139   1.272       .  A
O111       Mg113   2.295       .  S
O112       Mg144   2.269   1_565  S
Mg113       O119   2.130       .  S
Mg113       O127   2.249       .  S
Mg113       O115   2.287       .  S
C114        C512   1.488       .  S
C114        O152   1.271       .  A
C114        O120   1.277       .  A
O115        C122   1.273       .  A
H116        C129   1.081       .  S
C117        H142   1.080       .  S
C117        O131   1.240   1_545  S
C117        O132   1.275       .  A
O118        C141   1.272       .  A
O119       Mg133   2.140   1_545  S
O120       Mg150   2.325       .  S
C121        C736   1.501       .  S
C121        O134   1.275       .  A
C121        O126   1.280       .  A
C122        C708   1.492       .  S
C122        O149   1.274       .  A
Mg123       O130   2.133       .  S
Mg123       O131   2.145       .  S
Mg123       O124   2.294       .  S
Mg123       O125   2.298       .  S
Mg123       O152   2.247       .  S
O125        C129   1.272       .  A
O126       Mg133   2.334       .  S
O127        C146   1.271       .  A
O128        C148   1.280       .  A
O128       Mg144   2.341       .  S
O130       Mg144   2.140   1_565  S
O130        C141   1.238       .  S
O131       Mg150   2.147       .  S
O132       Mg144   2.311       .  S
Mg133       O149   2.275   1_565  S
O134       Mg150   2.273       .  S
H135        C140   1.079   1_565  S
O136       Mg144   2.124       .  S
O136        C139   1.239       .  S
H137        C139   1.081       .  S
H138        C141   1.078       .  S
O143       Mg150   2.300   1_545  S
C146        C428   1.486       .  S
C146        O151   1.277       .  A
O147        C148   1.276       .  A
C148        C645   1.500       .  S
O153       Mg155   2.148   1_565  S
O153       Mg161   2.143       .  S
O153        C188   1.238   1_455  S
C154        H193   1.080       .  S
C154        O167   1.239       .  S
C154        O191   1.273       .  A
Mg155       O184   2.136       .  S
Mg155       O199   2.288       .  S
Mg155       O195   2.266       .  S
Mg155       O166   2.289   1_455  S
O156       Mg198   2.134       .  S
O156       Mg181   2.128       .  S
O156        C177   1.239       .  S
O157        C188   1.273       .  A
O157       Mg181   2.309       .  S
C158        C757   1.491       .  S
C158        O160   1.275   1_655  A
C158        O172   1.274       .  A
O159        C187   1.274   1_565  A
O159       Mg161   2.306       .  S
O160       Mg192   2.281       .  S
Mg161       O167   2.132       .  S
Mg161       O175   2.253       .  S
Mg161       O163   2.326       .  S
C162        C673   1.485       .  S
C162        O200   1.270       .  A
C162        O168   1.275   1_545  A
O163        C170   1.277       .  A
H164        C177   1.081       .  S
C165        H190   1.081       .  S
C165        O179   1.240   1_455  S
C165        O180   1.273       .  A
O166        C189   1.269       .  A
O167       Mg181   2.138   1_455  S
O168       Mg198   2.319       .  S
C169        C876   1.488       .  S
C169        O182   1.271       .  A
C169        O174   1.276       .  A
C170        C841   1.498       .  S
C170        O197   1.272   1_455  A
Mg171       O178   2.110       .  S
Mg171       O179   2.137       .  S
Mg171       O172   2.288       .  S
Mg171       O173   2.299       .  S
Mg171       O200   2.240       .  S
O173        C177   1.272   1_545  A
O174       Mg181   2.318       .  S
O175        C194   1.271       .  A
O176        C196   1.279       .  A
O176       Mg192   2.337       .  S
O178       Mg192   2.135   1_655  S
O178        C189   1.236       .  S
O179       Mg198   2.128   1_545  S
O180       Mg192   2.301       .  S
Mg181       O197   2.262       .  S
O182       Mg198   2.247       .  S
H183        C188   1.080       .  S
O184       Mg192   2.140       .  S
O184        C187   1.239       .  S
H185        C187   1.081       .  S
H186        C189   1.080       .  S
O191       Mg198   2.307   1_455  S
C194        C596   1.480       .  S
C194        O199   1.273   1_565  A
O195        C196   1.274       .  A
C196        C792   1.503       .  S
O201       Mg203   2.145   1_655  S
O201       Mg209   2.142       .  S
O201        C236   1.238       .  S
C202        H241   1.079       .  S
C202        O215   1.239       .  S
C202        O239   1.274       .  A
Mg203       O232   2.144       .  S
Mg203       O247   2.301       .  S
Mg203       O243   2.272       .  S
Mg203       O214   2.283       .  S
O204       Mg246   2.123       .  S
O204       Mg229   2.135       .  S
O204        C225   1.239       .  S
O205        C236   1.273       .  A
O205       Mg229   2.308       .  S
C206        C344   1.500       .  S
C206        O208   1.274       .  A
C206        O220   1.273       .  A
O207        C235   1.272       .  A
O207       Mg209   2.296   1_455  S
O208       Mg240   2.264       .  S
Mg209       O215   2.141       .  S
Mg209       O223   2.253       .  S
Mg209       O211   2.314       .  S
C210        C904   1.502   1_455  S
C210        O248   1.271       .  A
C210        O216   1.273   1_455  A
O211        C218   1.276       .  A
H212        C225   1.081       .  S
C213        H238   1.080       .  S
C213        O227   1.239       .  S
C213        O228   1.272       .  A
O214        C237   1.268       .  A
O215       Mg229   2.137       .  S
O216       Mg246   2.301       .  S
C217        C281   1.495       .  S
C217        O230   1.268       .  A
C217        O222   1.279       .  A
C218        C260   1.490       .  S
C218        O245   1.274       .  A
Mg219       O226   2.116       .  S
Mg219       O227   2.136       .  S
Mg219       O220   2.284       .  S
Mg219       O221   2.308       .  S
Mg219       O248   2.265       .  S
O221        C225   1.274   1_455  A
O222       Mg229   2.345       .  S
O223        C242   1.272   1_655  A
O224        C244   1.279       .  A
O224       Mg240   2.326       .  S
O226       Mg240   2.149       .  S
O226        C237   1.236       .  S
O227       Mg246   2.121   1_455  S
O228       Mg240   2.295       .  S
Mg229       O245   2.276       .  S
O230       Mg246   2.235       .  S
H231        C236   1.078       .  S
O232       Mg240   2.124       .  S
O232        C235   1.239       .  S
H233        C235   1.081       .  S
H234        C237   1.080       .  S
O239       Mg246   2.312       .  S
C242        C813   1.482       .  S
C242        O247   1.275       .  A
O243        C244   1.275       .  A
C244        C372   1.504       .  S
C249        C250   1.410       .  A
C249        C254   1.414       .  A
C249        C267   1.451       .  S
C250        C255   1.500       .  S
C250        C251   1.410       .  A
C251        C252   1.409       .  A
C251        C256   1.451       .  S
C252        C253   1.417       .  A
C252        C268   1.452       .  S
C253        C254   1.416       .  A
C254        C257   1.447       .  S
C255        C258   1.409       .  A
C255        C262   1.413       .  A
C256        N273   1.157       .  T
C257        N275   1.157       .  T
C258        C259   1.410       .  A
C258        C263   1.450       .  S
C259        C260   1.417       .  A
C259        C265   1.451       .  S
C260        C261   1.414       .  A
C261        C262   1.413       .  A
C261        C264   1.450       .  S
C262        C266   1.451       .  S
C263        N270   1.157       .  T
C264        N271   1.157       .  T
C265        N269   1.157       .  T
C266        N272   1.157       .  T
C267        N276   1.157       .  T
C268        N274   1.157       .  T
C277        C278   1.408       .  A
C277        C282   1.409       .  A
C277        C295   1.452       .  S
C278        C283   1.499       .  S
C278        C279   1.412       .  A
C279        C280   1.414       .  A
C279        C284   1.450       .  S
C280        C281   1.416       .  A
C280        C296   1.450       .  S
C281        C282   1.422       .  A
C282        C285   1.453       .  S
C283        C286   1.411       .  A
C283        C290   1.409       .  A
C284        N301   1.157       .  T
C285        N303   1.158       .  T
C286        C287   1.411       .  A
C286        C291   1.451       .  S
C287        C288   1.413       .  A
C287        C293   1.447       .  S
C288        C289   1.413       .  A
C289        C290   1.412       .  A
C289        C292   1.445       .  S
C290        C294   1.451       .  S
C291        N298   1.157       .  T
C292        N299   1.157       .  T
C293       N1217   1.157       .  T
C294        N300   1.157       .  T
C295        N304   1.157       .  T
C296        N302   1.157       .  T
N297       C1213   1.157   1_554  T
C305        C306   1.410       .  A
C305        C310   1.416       .  A
C305        C323   1.450       .  S
C306        C311   1.494       .  S
C306        C307   1.408       .  A
C307        C308   1.405       .  A
C307        C312   1.452       .  S
C308        C309   1.416       .  A
C308        C324   1.453       .  S
C309        C310   1.415       .  A
C310        C313   1.448       .  S
C311        C314   1.407       .  A
C311        C318   1.411       .  A
C312        N329   1.157       .  T
C313        N331   1.157       .  T
C314        C315   1.412       .  A
C314        C319   1.450       .  S
C315        C316   1.417       .  A
C315        C321   1.450       .  S
C316        C317   1.416       .  A
C317        C318   1.410       .  A
C317        C320   1.452       .  S
C318        C322   1.452       .  S
C319        N326   1.157       .  T
C320        N327   1.158       .  T
C321        N325   1.157       .  T
C322        N328   1.157       .  T
C323        N332   1.157       .  T
C324        N330   1.157       .  T
C333        C334   1.407       .  A
C333        C338   1.406       .  A
C333        C351   1.451       .  S
C334        C339   1.491       .  S
C334        C335   1.409       .  A
C335        C336   1.411       .  A
C335        C340   1.451       .  S
C336        C337   1.414       .  A
C336        C352   1.449       .  S
C337        C338   1.418       .  A
C338        C341   1.452       .  S
C339        C342   1.408       .  A
C339        C346   1.404       .  A
C340        N357   1.157       .  T
C341        N359   1.157       .  T
C342        C343   1.409       .  A
C342        C347   1.452       .  S
C343        C344   1.421       .  A
C343        C349   1.452       .  S
C344        C345   1.427       .  A
C345        C346   1.411       .  A
C345        C348   1.452       .  S
C346        C350   1.452       .  S
C347        N354   1.157       .  T
C348        N355   1.158       .  T
C349        N353   1.158       .  T
C350        N356   1.157       .  T
C351        N360   1.157       .  T
C352        N358   1.157       .  T
C361        C362   1.412       .  A
C361        C366   1.415       .  A
C361        C379   1.451       .  S
C362        C367   1.508       .  S
C362        C363   1.411       .  A
C363        C364   1.411       .  A
C363        C368   1.451       .  S
C364        C365   1.417       .  A
C364        C380   1.447       .  S
C365        C366   1.418       .  A
C366        C369   1.446       .  S
C367        C370   1.413       .  A
C367        C374   1.413       .  A
C368        N385   1.157       .  T
C369        N387   1.157       .  T
C370        C371   1.415       .  A
C370        C375   1.452       .  S
C371        C372   1.421       .  A
C371        C377   1.452       .  S
C372        C373   1.420       .  A
C373        C374   1.413       .  A
C373        C376   1.452       .  S
C374        C378   1.452       .  S
C375        N382   1.157       .  T
C376        N383   1.158       .  T
C377        N381   1.158       .  T
C378        N384   1.157       .  T
C379        N388   1.157       .  T
C380       N1306   1.157       .  T
N386       C1300   1.157       .  T
C389        C390   1.413       .  A
C389        C394   1.414       .  A
C389        C407   1.450       .  S
C390        C395   1.495       .  S
C390        C391   1.408       .  A
C391        C392   1.405       .  A
C391        C396   1.452       .  S
C392        C393   1.418       .  A
C392        C408   1.453       .  S
C393        C394   1.412       .  A
C394        C397   1.449       .  S
C395        C398   1.411       .  A
C395        C402   1.412       .  A
C396        N413   1.157       .  T
C397        N415   1.157       .  T
C398        C399   1.412       .  A
C398        C403   1.450       .  S
C399        C400   1.413       .  A
C399        C405   1.450       .  S
C400        C401   1.413       .  A
C401        C402   1.408       .  A
C401        C404   1.453       .  S
C402        C406   1.452       .  S
C403        N410   1.157       .  T
C404        N411   1.157       .  T
C405        N409   1.157       .  T
C406        N412   1.157       .  T
C407        N416   1.157       .  T
C408       N1334   1.157   1_554  T
N414       C1328   1.157       .  T
C417        C418   1.409       .  A
C417        C422   1.413       .  A
C417        C435   1.450       .  S
C418        C423   1.493       .  S
C418        C419   1.409       .  A
C419        C420   1.407       .  A
C419        C424   1.452       .  S
C420        C421   1.417       .  A
C420        C436   1.453       .  S
C421        C422   1.413       .  A
C422       C1345   1.448       .  S
C423        C426   1.412       .  A
C423        C430   1.407       .  A
C424        N441   1.157       .  T
C425       C1342   1.448       .  S
C425        N443   1.157       .  T
C426        C427   1.410       .  A
C426        C431   1.451       .  S
C427        C428   1.413       .  A
C427        C433   1.450       .  S
C428        C429   1.418       .  A
C429        C430   1.410       .  A
C429        C432   1.451       .  S
C430        C434   1.450       .  S
C431        N438   1.157       .  T
C432        N439   1.157       .  T
C433        N437   1.157       .  T
C434        N440   1.157       .  T
C435        N444   1.157       .  T
C436        N442   1.157       .  T
C445        C446   1.413       .  A
C445        C450   1.410       .  A
C445        C463   1.452       .  S
C446        C451   1.499       .  S
C446        C447   1.409       .  A
C447        C448   1.411       .  A
C447        C452   1.451       .  S
C448        C449   1.422       .  A
C448        C464   1.452       .  S
C449        C450   1.417       .  A
C450        C453   1.452       .  S
C451        C454   1.411       .  A
C451        C458   1.410       .  A
C452        N469   1.157       .  T
C453        N471   1.158       .  T
C454        C455   1.414       .  A
C454        C459   1.451       .  S
C455        C456   1.415       .  A
C455        C461   1.449       .  S
C456        C457   1.416       .  A
C457        C458   1.407       .  A
C457        C460   1.451       .  S
C458        C462   1.453       .  S
C459        N466   1.157       .  T
C460        N467   1.157       .  T
C461       N1385   1.157       .  T
C462        N468   1.157       .  T
C463        N472   1.157       .  T
C464        N470   1.158       .  T
N465       C1381   1.157   1_554  T
C473        C474   1.409       .  A
C473        C478   1.414       .  A
C473        C491   1.450       .  S
C474        C479   1.508       .  S
C474        C475   1.411       .  A
C475        C476   1.418       .  A
C475        C480   1.450       .  S
C476        C477   1.417       .  A
C476        C492   1.445       .  S
C477        C478   1.415       .  A
C478        C481   1.445       .  S
C479        C482   1.413       .  A
C479        C486   1.411       .  A
C480        N497   1.157       .  T
C481        N499   1.157   1_554  T
C482        C483   1.419       .  A
C482        C487   1.450       .  S
C483        C484   1.417       .  A
C483        C489   1.449       .  S
C484        C485   1.417       .  A
C485        C486   1.414       .  A
C485        C488   1.451       .  S
C486        C490   1.451       .  S
C487        N494   1.157       .  T
C488        N495   1.157       .  T
C489        N493   1.157       .  T
C490        N496   1.157       .  T
C491        N500   1.157       .  T
C492        N498   1.157       .  T
C501        C502   1.410       .  A
C501        C506   1.413       .  A
C501        C519   1.450       .  S
C502        C507   1.495       .  S
C502        C503   1.408       .  A
C503        C504   1.406       .  A
C503        C508   1.452       .  S
C504        C505   1.418       .  A
C504       C1440   1.453       .  S
C505        C506   1.414       .  A
C506        C509   1.448       .  S
C507        C510   1.407       .  A
C507        C514   1.413       .  A
C508        N525   1.157       .  T
C509        N527   1.157       .  T
C510        C511   1.410       .  A
C510        C515   1.450       .  S
C511        C512   1.418       .  A
C511        C517   1.451       .  S
C512        C513   1.414       .  A
C513        C514   1.411       .  A
C513        C516   1.451       .  S
C514        C518   1.452       .  S
C515        N522   1.157       .  T
C516        N523   1.157       .  T
C517        N521   1.157       .  T
C518        N524   1.157       .  T
C519        N528   1.157       .  T
C520       C1424   1.453       .  S
C520        N526   1.157       .  T
C529        C530   1.414       .  A
C529        C534   1.410       .  A
C529        C547   1.451       .  S
C530        C535   1.495       .  S
C530        C531   1.409       .  A
C531        C532   1.407       .  A
C531        C536   1.453       .  S
C532        C533   1.415       .  A
C532        C548   1.450       .  S
C533        C534   1.411       .  A
C534        C537   1.451       .  S
C535        C538   1.409       .  A
C535        C542   1.413       .  A
C536        N553   1.157       .  T
C537        N555   1.157       .  T
C538        C539   1.407       .  A
C538        C543   1.452       .  S
C539        C540   1.420       .  A
C539        C545   1.453       .  S
C540        C541   1.412       .  A
C541        C542   1.410       .  A
C541        C544   1.448       .  S
C542        C546   1.452       .  S
C543        N550   1.157       .  T
C544       N1471   1.157   1_554  T
C545        N549   1.157       .  T
C546        N552   1.157       .  T
C547        N556   1.157       .  T
C548        N554   1.157       .  T
N551       C1464   1.157       .  T
C557        C558   1.411       .  A
C557        C562   1.415       .  A
C557        C575   1.452       .  S
C558        C563   1.509       .  S
C558        C559   1.412       .  A
C559        C560   1.415       .  A
C559        C564   1.451       .  S
C560        C561   1.417       .  A
C560       C1496   1.447       .  S
C561        C562   1.418       .  A
C562        C565   1.447       .  S
C563        C566   1.414       .  A
C563        C570   1.412       .  A
C564        N581   1.157       .  T
C565        N583   1.157       .  T
C566        C567   1.416       .  A
C566        C571   1.451       .  S
C567        C568   1.417       .  A
C567        C573   1.450       .  S
C568        C569   1.421       .  A
C569        C570   1.414       .  A
C569        C572   1.452       .  S
C570        C574   1.452       .  S
C571        N578   1.157       .  T
C572        N579   1.158       .  T
C573        N577   1.157       .  T
C574        N580   1.157       .  T
C575        N584   1.157       .  T
C576       C1480   1.447       .  S
C576        N582   1.157   1_556  T
C585        C586   1.409   1_545  A
C585        C590   1.410       .  A
C585        C603   1.451       .  S
C586        C591   1.488       .  S
C586        C587   1.407       .  A
C587        C588   1.405       .  A
C587        C592   1.452       .  S
C588        C589   1.417       .  A
C588        C604   1.453       .  S
C589        C590   1.413   1_565  A
C590        C593   1.448       .  S
C591        C594   1.411   1_565  A
C591        C598   1.407       .  A
C592        N609   1.157       .  T
C593        N611   1.157       .  T
C594        C595   1.407       .  A
C594        C599   1.452       .  S
C595        C596   1.414   1_545  A
C595        C601   1.452       .  S
C596        C597   1.416       .  A
C597        C598   1.409       .  A
C597        C600   1.451       .  S
C598        C602   1.450       .  S
C599        N606   1.157       .  T
C600        N607   1.157       .  T
C601        N605   1.157       .  T
C602        N608   1.157       .  T
C603        N612   1.157       .  T
C604        N610   1.157       .  T
C613        C614   1.412       .  A
C613        C618   1.410       .  A
C613        C631   1.452       .  S
C614        C619   1.498       .  S
C614        C615   1.408       .  A
C615        C616   1.412       .  A
C615        C620   1.451       .  S
C616        C617   1.422       .  A
C616        C632   1.452       .  S
C617        C618   1.416       .  A
C618        C621   1.451       .  S
C619        C622   1.411       .  A
C619        C626   1.410   1_565  A
C620        N637   1.157       .  T
C621        N639   1.157       .  T
C622        C623   1.413       .  A
C622        C627   1.451       .  S
C623        C624   1.414       .  A
C623        C629   1.449       .  S
C624        C625   1.415   1_565  A
C625        C626   1.406       .  A
C625        C628   1.451       .  S
C626        C630   1.451       .  S
C627        N634   1.157       .  T
C628        N635   1.158       .  T
C629       N1553   1.157       .  T
C630        N636   1.157       .  T
C631        N640   1.157       .  T
C632        N638   1.158       .  T
N633       C1549   1.157       .  T
C641        C642   1.413       .  A
C641        C646   1.417       .  A
C641        C659   1.450       .  S
C642        C647   1.506   1_545  S
C642        C643   1.410   1_545  A
C643        C644   1.413   1_565  A
C643        C648   1.452       .  S
C644        C645   1.420       .  A
C644        C660   1.451   1_545  S
C645        C646   1.417       .  A
C646        C649   1.450       .  S
C647        C650   1.410   1_565  A
C647        C654   1.412       .  A
C648        N665   1.157       .  T
C649        N667   1.157       .  T
C650        C651   1.411       .  A
C650        C655   1.451       .  S
C651        C652   1.414   1_545  A
C651       C1577   1.446       .  S
C652        C653   1.416       .  A
C653        C654   1.418       .  A
C653        C656   1.446       .  S
C654        C658   1.450       .  S
C655        N662   1.157       .  T
C656        N663   1.157       .  T
C657       C1571   1.446       .  S
C657        N661   1.157       .  T
C658        N664   1.157       .  T
C659        N668   1.157       .  T
C660        N666   1.157       .  T
C669        C670   1.410       .  A
C669        C674   1.406       .  A
C669        C687   1.452       .  S
C670        C675   1.492       .  S
C670        C671   1.409   1_545  A
C671        C672   1.413       .  A
C671        C676   1.450       .  S
C672        C673   1.418   1_565  A
C672        C688   1.451       .  S
C673        C674   1.414       .  A
C674        C677   1.451       .  S
C675        C678   1.410       .  A
C675        C682   1.406   1_545  A
C676        N693   1.157       .  T
C677        N695   1.157       .  T
C678        C679   1.413       .  A
C678        C683   1.450       .  S
C679        C680   1.414       .  A
C679        C685   1.448       .  S
C680        C681   1.419   1_545  A
C681        C682   1.405       .  A
C681       C1604   1.453       .  S
C682        C686   1.452       .  S
C683        N690   1.157       .  T
C684       C1601   1.453       .  S
C684        N691   1.157   1_556  T
C685        N689   1.157       .  T
C686        N692   1.157       .  T
C687        N696   1.157       .  T
C688        N694   1.157       .  T
C697        C698   1.407       .  A
C697        C702   1.408       .  A
C697        C715   1.452       .  S
C698        C703   1.495       .  S
C698        C699   1.409       .  A
C699        C700   1.413       .  A
C699        C704   1.451   1_545  S
C700        C701   1.416       .  A
C700        C716   1.447   1_545  S
C701        C702   1.420       .  A
C702        C705   1.452       .  S
C703        C706   1.406       .  A
C703        C710   1.413       .  A
C704        N721   1.157       .  T
C705       N1643   1.157       .  T
C706        C707   1.410       .  A
C706        C711   1.452       .  S
C707        C708   1.422       .  A
C707        C713   1.452       .  S
C708        C709   1.415       .  A
C709        C710   1.411       .  A
C709        C712   1.451       .  S
C710        C714   1.451       .  S
C711        N718   1.157       .  T
C712        N719   1.157       .  T
C713        N717   1.157       .  T
C714        N720   1.157       .  T
C715        N724   1.157       .  T
C716        N722   1.157   1_554  T
N723       C1625   1.157       .  T
C725        C726   1.411       .  A
C725        C730   1.410       .  A
C725        C743   1.451       .  S
C726        C731   1.505   1_545  S
C726        C727   1.413   1_545  A
C727        C728   1.416       .  A
C727        C732   1.450       .  S
C728        C729   1.416   1_565  A
C728        C744   1.447       .  S
C729        C730   1.413       .  A
C730        C733   1.447       .  S
C731        C734   1.412       .  A
C731        C738   1.412       .  A
C732        N749   1.157       .  T
C733        N751   1.157       .  T
C734        C735   1.416       .  A
C734        C739   1.450       .  S
C735        C736   1.419       .  A
C735        C741   1.451       .  S
C736        C737   1.420       .  A
C737        C738   1.411       .  A
C737        C740   1.452       .  S
C738        C742   1.453   1_565  S
C739        N746   1.157       .  T
C740        N747   1.158       .  T
C741        N745   1.157       .  T
C742        N748   1.157       .  T
C743        N752   1.157       .  T
C744       N1670   1.157       .  T
N750       C1664   1.157       .  T
C753        C754   1.411       .  A
C753        C758   1.410       .  A
C753        C771   1.451       .  S
C754        C759   1.493       .  S
C754        C755   1.406       .  A
C755        C756   1.410       .  A
C755        C760   1.451       .  S
C756        C757   1.421       .  A
C756        C772   1.451       .  S
C757        C758   1.414       .  A
C758        C761   1.450       .  S
C759        C762   1.407       .  A
C759        C766   1.409   1_655  A
C760        N777   1.157       .  T
C761        N779   1.157       .  T
C762        C763   1.407       .  A
C762        C767   1.451       .  S
C763        C764   1.418       .  A
C763        C769   1.452       .  S
C764        C765   1.414   1_655  A
C765        C766   1.411       .  A
C765        C768   1.449       .  S
C766        C770   1.451       .  S
C767        N774   1.157       .  T
C768        N775   1.157       .  T
C769        N773   1.157       .  T
C770        N776   1.157       .  T
C771        N780   1.157       .  T
C772        N778   1.157       .  T
C781        C782   1.413       .  A
C781        C786   1.416       .  A
C781        C799   1.450       .  S
C782        C787   1.505       .  S
C782        C783   1.411   1_455  A
C783        C784   1.410       .  A
C783        C788   1.452       .  S
C784        C785   1.414   1_655  A
C784        C800   1.447       .  S
C785        C786   1.415       .  A
C786        C789   1.447       .  S
C787        C790   1.413       .  A
C787        C794   1.410       .  A
C788        N805   1.157       .  T
C789       N1727   1.157       .  T
C790        C791   1.417       .  A
C790        C795   1.450       .  S
C791        C792   1.419       .  A
C791        C797   1.450       .  S
C792        C793   1.422       .  A
C793        C794   1.410       .  A
C793        C796   1.452       .  S
C794        C798   1.453       .  S
C795        N802   1.157       .  T
C796        N803   1.157       .  T
C797        N801   1.157       .  T
C798        N804   1.157       .  T
C799        N808   1.157       .  T
C800        N806   1.157       .  T
N807       C1709   1.157       .  T
C809        C810   1.411   1_655  A
C809        C814   1.407       .  A
C809        C827   1.452       .  S
C810        C815   1.490       .  S
C810        C811   1.408       .  A
C811        C812   1.411       .  A
C811        C816   1.450       .  S
C812        C813   1.416       .  A
C812        C828   1.451       .  S
C813        C814   1.413   1_455  A
C814        C817   1.452       .  S
C815        C818   1.406       .  A
C815        C822   1.409       .  A
C816        N833   1.157       .  T
C817        N835   1.157       .  T
C818        C819   1.406       .  A
C818        C823   1.451       .  S
C819        C820   1.419       .  A
C819        C825   1.453       .  S
C820        C821   1.414   1_455  A
C821        C822   1.411   1_655  A
C821        C824   1.447       .  S
C822        C826   1.451   1_455  S
C823        N830   1.157       .  T
C824        N831   1.157       .  T
C825       N1749   1.157   1_554  T
C826        N832   1.157       .  T
C827        N836   1.157       .  T
C828        N834   1.157       .  T
N829       C1745   1.157       .  T
C837        C838   1.412   1_455  A
C837        C842   1.413       .  A
C837        C855   1.451   1_455  S
C838        C843   1.503       .  S
C838        C839   1.410   1_655  A
C839        C840   1.413       .  A
C839        C844   1.450       .  S
C840        C841   1.420       .  A
C840        C856   1.451       .  S
C841        C842   1.418       .  A
C842        C845   1.452       .  S
C843        C846   1.411       .  A
C843        C850   1.409   1_655  A
C844        N861   1.157       .  T
C845        N863   1.158       .  T
C846        C847   1.413       .  A
C846        C851   1.451       .  S
C847        C848   1.417       .  A
C847        C853   1.450       .  S
C848        C849   1.416       .  A
C849        C850   1.413   1_655  A
C849        C852   1.447   1_655  S
C850        C854   1.451       .  S
C851        N858   1.157       .  T
C852       N1779   1.156       .  T
C853        N857   1.157       .  T
C854        N860   1.157       .  T
C855        N864   1.157       .  T
C856        N862   1.157       .  T
N859       C1772   1.156       .  T
C865        C866   1.408       .  A
C865        C870   1.412       .  A
C865        C883   1.450   1_655  S
C866        C871   1.492       .  S
C866        C867   1.407       .  A
C867        C868   1.407       .  A
C867        C872   1.451       .  S
C868        C869   1.415       .  A
C868        C884   1.448       .  S
C869        C870   1.415       .  A
C870        C873   1.445   1_655  S
C871        C874   1.410       .  A
C871        C878   1.408       .  A
C872        N889   1.157       .  T
C873        N891   1.157       .  T
C874        C875   1.412       .  A
C874        C879   1.450       .  S
C875        C876   1.416       .  A
C875        C881   1.451       .  S
C876        C877   1.419       .  A
C877        C878   1.408       .  A
C877        C880   1.452       .  S
C878        C882   1.452       .  S
C879        N886   1.157       .  T
C880        N887   1.158       .  T
C881        N885   1.157       .  T
C882        N888   1.157       .  T
C883        N892   1.157       .  T
C884       N1810   1.157       .  T
N890       C1804   1.157       .  T
C893        C894   1.409   1_455  A
C893        C898   1.406   1_455  A
C893        C911   1.451       .  S
C894        C899   1.496       .  S
C894        C895   1.412       .  A
C895        C896   1.414       .  A
C895        C900   1.450       .  S
C896        C897   1.412       .  A
C896       C1832   1.448       .  S
C897        C898   1.415       .  A
C898        C901   1.452   1_655  S
C899        C902   1.409       .  A
C899        C906   1.407   1_655  A
C900        N917   1.157       .  T
C901        N919   1.157       .  T
C902        C903   1.410       .  A
C902        C907   1.452       .  S
C903        C904   1.422       .  A
C903        C909   1.452       .  S
C904        C905   1.424   1_655  A
C905        C906   1.413       .  A
C905        C908   1.451       .  S
C906        C910   1.451       .  S
C907        N914   1.157       .  T
C908        N915   1.158       .  T
C909        N913   1.157       .  T
C910        N916   1.157       .  T
C911        N920   1.157       .  T
C912       C1816   1.448       .  S
C912        N918   1.157       .  T
N921        C922   1.358       .  A
N921       C1789   1.447       .  S
C922       C1817   1.488       .  S
C923        C924   1.372       .  A
C923        H926   1.082       .  S
C924        C925   1.381       .  A
C924        H927   1.082       .  S
C925       C1768   1.496       .  S
N928        C929   1.363       .  A
N928       C1705   1.452   1_655  S
C929       C1740   1.489   1_655  S
C930        C931   1.365       .  A
C930        H933   1.083       .  S
C931        C932   1.379       .  A
C931        H934   1.082       .  S
C932       C1684   1.488       .  S
N935        C936   1.363       .  A
N935       C1649   1.452       .  S
C936       C1600   1.489       .  S
C937        C938   1.365       .  A
C937        H940   1.083       .  S
C938        C939   1.381       .  A
C938        H941   1.082       .  S
C939       C1621   1.493       .  S
N942        C943   1.360       .  A
N942       C1572   1.454       .  S
C943       C1509   1.483       .  S
C944        C945   1.367       .  A
C944        H947   1.082       .  S
C945        C946   1.380       .  A
C945        H948   1.082       .  S
C946       C1544   1.485       .  S
N949        C950   1.365       .  A
N949       C1481   1.459       .  S
C950       C1425   1.489       .  S
C951        C952   1.364       .  A
C951        H954   1.082       .  S
C952        C953   1.381       .  A
C952        H955   1.082       .  S
C953       C1460   1.489       .  S
N956        C957   1.364       .  A
N956       C1397   1.457       .  S
C957       C1341   1.485       .  S
C958        C959   1.366       .  A
C958        H961   1.082       .  S
C959        C960   1.380       .  A
C959        H962   1.082       .  S
C960       C1376   1.488       .  S
N963        C964   1.365       .  A
N963       C1285   1.457       .  S
C964       C1313   1.487       .  S
C965        C966   1.364       .  A
C965        H968   1.083       .  S
C966        C967   1.380       .  A
C966        H969   1.082       .  S
C967       C1257   1.488       .  S
N970        C971   1.361       .  A
N970       C1208   1.447       .  S
C971       C1229   1.489       .  S
C972        C973   1.369       .  A
C972        H975   1.082       .  S
C973        C974   1.382       .  A
C973        H976   1.082       .  S
C974       C1173   1.494       .  S
O977       Mg979   2.152       .  S
O977       Mg985   2.138       .  S
O977       C1012   1.240       .  S
C978       H1017   1.081       .  S
C978        O991   1.237       .  S
C978       O1015   1.270       .  A
Mg979      O1008   2.139       .  S
Mg979      O1023   2.327       .  S
Mg979      O1019   2.280       .  S
Mg979       O990   2.297       .  S
O980      Mg1022   2.133       .  S
O980      Mg1005   2.115       .  S
O980       C1001   1.240       .  S
O981       C1012   1.276       .  A
O981      Mg1005   2.319       .  S
C982       C1369   1.494       .  S
C982        O984   1.274       .  A
C982        O996   1.276       .  A
O983       C1011   1.273       .  A
O983       Mg985   2.302       .  S
O984      Mg1016   2.258       .  S
Mg985       O991   2.128       .  S
Mg985       O999   2.231       .  S
Mg985       O987   2.295       .  S
C986       C1236   1.489       .  S
C986       O1024   1.275       .  A
C986        O992   1.273       .  A
O987        C994   1.272       .  A
H988       C1001   1.081       .  S
C989       H1014   1.080       .  S
C989       O1003   1.239       .  S
C989       O1004   1.273       .  A
O990       C1013   1.270       .  A
O991      Mg1005   2.130       .  S
O992      Mg1022   2.290       .  S
C993       C1488   1.502       .  S
C993       O1006   1.273       .  A
C993        O998   1.280       .  A
C994       C1453   1.480       .  S
C994       O1021   1.270       .  A
Mg995      O1002   2.148       .  S
Mg995      O1003   2.145       .  S
Mg995       O996   2.299       .  S
Mg995       O997   2.295       .  S
Mg995      O1024   2.283       .  S
O997       C1001   1.273       .  A
O998      Mg1005   2.342       .  S
O999       C1018   1.268       .  A
O1000      C1020   1.282       .  A
O1000     Mg1016   2.358       .  S
O1002     Mg1016   2.151       .  S
O1002      C1013   1.236       .  S
O1003     Mg1022   2.135       .  S
O1004     Mg1016   2.302       .  S
Mg1005     O1021   2.258       .  S
O1006     Mg1022   2.269       .  S
H1007      C1012   1.080       .  S
O1008     Mg1016   2.129       .  S
O1008      C1011   1.239       .  S
H1009      C1011   1.080       .  S
H1010      C1013   1.080       .  S
O1015     Mg1022   2.298       .  S
C1018      C1320   1.481       .  S
C1018      O1023   1.276       .  A
O1019      C1020   1.276       .  A
C1020      C1404   1.501       .  S
O1025     Mg1027   2.136       .  S
O1025     Mg1033   2.142       .  S
O1025      C1060   1.240       .  S
C1026      H1065   1.078       .  S
C1026      O1039   1.237       .  S
C1026      O1063   1.271       .  A
Mg1027     O1056   2.138       .  S
Mg1027     O1071   2.323       .  S
Mg1027     O1067   2.277       .  S
Mg1027     O1038   2.299   1_545  S
O1028     Mg1070   2.138       .  S
O1028     Mg1053   2.131       .  S
O1028      C1049   1.238       .  S
O1029      C1060   1.274   1_565  A
O1029     Mg1053   2.303       .  S
C1030      C1537   1.496       .  S
C1030      O1032   1.273       .  A
C1030      O1044   1.273       .  A
O1031      C1059   1.272       .  A
O1031     Mg1033   2.295       .  S
O1032     Mg1064   2.269   1_565  S
Mg1033     O1039   2.130       .  S
Mg1033     O1047   2.249       .  S
Mg1033     O1035   2.287       .  S
C1034      C1432   1.488       .  S
C1034      O1072   1.271       .  A
C1034      O1040   1.277       .  A
O1035      C1042   1.273       .  A
H1036      C1049   1.081       .  S
C1037      H1062   1.080       .  S
C1037      O1051   1.240   1_545  S
C1037      O1052   1.275       .  A
O1038      C1061   1.272       .  A
O1039     Mg1053   2.140   1_545  S
O1040     Mg1070   2.325       .  S
C1041      C1656   1.501       .  S
C1041      O1054   1.275       .  A
C1041      O1046   1.280       .  A
C1042      C1628   1.492       .  S
C1042      O1069   1.274       .  A
Mg1043     O1050   2.133       .  S
Mg1043     O1051   2.145       .  S
Mg1043     O1044   2.294       .  S
Mg1043     O1045   2.298       .  S
Mg1043     O1072   2.247       .  S
O1045      C1049   1.272       .  A
O1046     Mg1053   2.334       .  S
O1047      C1066   1.271       .  A
O1048      C1068   1.280       .  A
O1048     Mg1064   2.341       .  S
O1050     Mg1064   2.140   1_565  S
O1050      C1061   1.238       .  S
O1051     Mg1070   2.147       .  S
O1052     Mg1064   2.311       .  S
Mg1053     O1069   2.275   1_565  S
O1054     Mg1070   2.273       .  S
H1055      C1060   1.079   1_565  S
O1056     Mg1064   2.124       .  S
O1056      C1059   1.239       .  S
H1057      C1059   1.081       .  S
H1058      C1061   1.078       .  S
O1063     Mg1070   2.300   1_545  S
C1066      C1348   1.486       .  S
C1066      O1071   1.277       .  A
O1067      C1068   1.276       .  A
C1068      C1565   1.500       .  S
O1073     Mg1075   2.148   1_565  S
O1073     Mg1081   2.143       .  S
O1073      C1108   1.238   1_455  S
C1074      H1113   1.080       .  S
C1074      O1087   1.239       .  S
C1074      O1111   1.273       .  A
Mg1075     O1104   2.136       .  S
Mg1075     O1119   2.288       .  S
Mg1075     O1115   2.266       .  S
Mg1075     O1086   2.289   1_455  S
O1076     Mg1118   2.134       .  S
O1076     Mg1101   2.128       .  S
O1076      C1097   1.239       .  S
O1077      C1108   1.273       .  A
O1077     Mg1101   2.309       .  S
C1078      C1677   1.491       .  S
C1078      O1080   1.275   1_655  A
C1078      O1092   1.274       .  A
O1079      C1107   1.274   1_565  A
O1079     Mg1081   2.306       .  S
O1080     Mg1112   2.281       .  S
Mg1081     O1087   2.132       .  S
Mg1081     O1095   2.253       .  S
Mg1081     O1083   2.326       .  S
C1082      C1593   1.485       .  S
C1082      O1120   1.270       .  A
C1082      O1088   1.275   1_545  A
O1083      C1090   1.277       .  A
H1084      C1097   1.081       .  S
C1085      H1110   1.081       .  S
C1085      O1099   1.240   1_455  S
C1085      O1100   1.273       .  A
O1086      C1109   1.269       .  A
O1087     Mg1101   2.138   1_455  S
O1088     Mg1118   2.319       .  S
C1089      C1796   1.488       .  S
C1089      O1102   1.271       .  A
C1089      O1094   1.276       .  A
C1090      C1761   1.498       .  S
C1090      O1117   1.272   1_455  A
Mg1091     O1098   2.110       .  S
Mg1091     O1099   2.137       .  S
Mg1091     O1092   2.288       .  S
Mg1091     O1093   2.299       .  S
Mg1091     O1120   2.240       .  S
O1093      C1097   1.272   1_545  A
O1094     Mg1101   2.318       .  S
O1095      C1114   1.271       .  A
O1096      C1116   1.279       .  A
O1096     Mg1112   2.337       .  S
O1098     Mg1112   2.135   1_655  S
O1098      C1109   1.236       .  S
O1099     Mg1118   2.128   1_545  S
O1100     Mg1112   2.301       .  S
Mg1101     O1117   2.262       .  S
O1102     Mg1118   2.247       .  S
H1103      C1108   1.080       .  S
O1104     Mg1112   2.140       .  S
O1104      C1107   1.239       .  S
H1105      C1107   1.081       .  S
H1106      C1109   1.080       .  S
O1111     Mg1118   2.307   1_455  S
C1114      C1516   1.480       .  S
C1114      O1119   1.273   1_565  A
O1115      C1116   1.274       .  A
C1116      C1712   1.503       .  S
O1121     Mg1123   2.145   1_655  S
O1121     Mg1129   2.142       .  S
O1121      C1156   1.238       .  S
C1122      H1161   1.079       .  S
C1122      O1135   1.239       .  S
C1122      O1159   1.274       .  A
Mg1123     O1152   2.144       .  S
Mg1123     O1167   2.301       .  S
Mg1123     O1163   2.272       .  S
Mg1123     O1134   2.283       .  S
O1124     Mg1166   2.123       .  S
O1124     Mg1149   2.135       .  S
O1124      C1145   1.239       .  S
O1125      C1156   1.273       .  A
O1125     Mg1149   2.308       .  S
C1126      C1264   1.500       .  S
C1126      O1128   1.274       .  A
C1126      O1140   1.273       .  A
O1127      C1155   1.272       .  A
O1127     Mg1129   2.296   1_455  S
O1128     Mg1160   2.264       .  S
Mg1129     O1135   2.141       .  S
Mg1129     O1143   2.253       .  S
Mg1129     O1131   2.314       .  S
C1130      C1824   1.502   1_455  S
C1130      O1168   1.271       .  A
C1130      O1136   1.273   1_455  A
O1131      C1138   1.276       .  A
H1132      C1145   1.081       .  S
C1133      H1158   1.080       .  S
C1133      O1147   1.239       .  S
C1133      O1148   1.272       .  A
O1134      C1157   1.268       .  A
O1135     Mg1149   2.137       .  S
O1136     Mg1166   2.301       .  S
C1137      C1201   1.495       .  S
C1137      O1150   1.268       .  A
C1137      O1142   1.279       .  A
C1138      C1180   1.490       .  S
C1138      O1165   1.274       .  A
Mg1139     O1146   2.116       .  S
Mg1139     O1147   2.136       .  S
Mg1139     O1140   2.284       .  S
Mg1139     O1141   2.308       .  S
Mg1139     O1168   2.265       .  S
O1141      C1145   1.274   1_455  A
O1142     Mg1149   2.345       .  S
O1143      C1162   1.272   1_655  A
O1144      C1164   1.279       .  A
O1144     Mg1160   2.326       .  S
O1146     Mg1160   2.149       .  S
O1146      C1157   1.236       .  S
O1147     Mg1166   2.121   1_455  S
O1148     Mg1160   2.295       .  S
Mg1149     O1165   2.276       .  S
O1150     Mg1166   2.235       .  S
H1151      C1156   1.078       .  S
O1152     Mg1160   2.124       .  S
O1152      C1155   1.239       .  S
H1153      C1155   1.081       .  S
H1154      C1157   1.080       .  S
O1159     Mg1166   2.312       .  S
C1162      C1733   1.482       .  S
C1162      O1167   1.275       .  A
O1163      C1164   1.275       .  A
C1164      C1292   1.504       .  S
C1169      C1170   1.410       .  A
C1169      C1174   1.414       .  A
C1169      C1187   1.451       .  S
C1170      C1175   1.500       .  S
C1170      C1171   1.410       .  A
C1171      C1172   1.409       .  A
C1171      C1176   1.451       .  S
C1172      C1173   1.417       .  A
C1172      C1188   1.452       .  S
C1173      C1174   1.416       .  A
C1174      C1177   1.447       .  S
C1175      C1178   1.409       .  A
C1175      C1182   1.413       .  A
C1176      N1193   1.157       .  T
C1177      N1195   1.157       .  T
C1178      C1179   1.410       .  A
C1178      C1183   1.450       .  S
C1179      C1180   1.417       .  A
C1179      C1185   1.451       .  S
C1180      C1181   1.414       .  A
C1181      C1182   1.413       .  A
C1181      C1184   1.450       .  S
C1182      C1186   1.451       .  S
C1183      N1190   1.157       .  T
C1184      N1191   1.157       .  T
C1185      N1189   1.157       .  T
C1186      N1192   1.157       .  T
C1187      N1196   1.157       .  T
C1188      N1194   1.157       .  T
C1197      C1198   1.408       .  A
C1197      C1202   1.409       .  A
C1197      C1215   1.452       .  S
C1198      C1203   1.499       .  S
C1198      C1199   1.412       .  A
C1199      C1200   1.414       .  A
C1199      C1204   1.450       .  S
C1200      C1201   1.416       .  A
C1200      C1216   1.450       .  S
C1201      C1202   1.422       .  A
C1202      C1205   1.453       .  S
C1203      C1206   1.411       .  A
C1203      C1210   1.409       .  A
C1204      N1221   1.157       .  T
C1205      N1223   1.158       .  T
C1206      C1207   1.411       .  A
C1206      C1211   1.451       .  S
C1207      C1208   1.413       .  A
C1207      C1213   1.447       .  S
C1208      C1209   1.413       .  A
C1209      C1210   1.412       .  A
C1209      C1212   1.445       .  S
C1210      C1214   1.451       .  S
C1211      N1218   1.157       .  T
C1212      N1219   1.157       .  T
C1214      N1220   1.157       .  T
C1215      N1224   1.157       .  T
C1216      N1222   1.157       .  T
C1225      C1226   1.410       .  A
C1225      C1230   1.416       .  A
C1225      C1243   1.450       .  S
C1226      C1231   1.494       .  S
C1226      C1227   1.408       .  A
C1227      C1228   1.405       .  A
C1227      C1232   1.452       .  S
C1228      C1229   1.416       .  A
C1228      C1244   1.453       .  S
C1229      C1230   1.415       .  A
C1230      C1233   1.448       .  S
C1231      C1234   1.407       .  A
C1231      C1238   1.411       .  A
C1232      N1249   1.157       .  T
C1233      N1251   1.157       .  T
C1234      C1235   1.412       .  A
C1234      C1239   1.450       .  S
C1235      C1236   1.417       .  A
C1235      C1241   1.450       .  S
C1236      C1237   1.416       .  A
C1237      C1238   1.410       .  A
C1237      C1240   1.452       .  S
C1238      C1242   1.452       .  S
C1239      N1246   1.157       .  T
C1240      N1247   1.158       .  T
C1241      N1245   1.157       .  T
C1242      N1248   1.157       .  T
C1243      N1252   1.157       .  T
C1244      N1250   1.157       .  T
C1253      C1254   1.407       .  A
C1253      C1258   1.406       .  A
C1253      C1271   1.451       .  S
C1254      C1259   1.491       .  S
C1254      C1255   1.409       .  A
C1255      C1256   1.411       .  A
C1255      C1260   1.451       .  S
C1256      C1257   1.414       .  A
C1256      C1272   1.449       .  S
C1257      C1258   1.418       .  A
C1258      C1261   1.452       .  S
C1259      C1262   1.408       .  A
C1259      C1266   1.404       .  A
C1260      N1277   1.157       .  T
C1261      N1279   1.157       .  T
C1262      C1263   1.409       .  A
C1262      C1267   1.452       .  S
C1263      C1264   1.421       .  A
C1263      C1269   1.452       .  S
C1264      C1265   1.427       .  A
C1265      C1266   1.411       .  A
C1265      C1268   1.452       .  S
C1266      C1270   1.452       .  S
C1267      N1274   1.157       .  T
C1268      N1275   1.158       .  T
C1269      N1273   1.158       .  T
C1270      N1276   1.157       .  T
C1271      N1280   1.157       .  T
C1272      N1278   1.157       .  T
C1281      C1282   1.412       .  A
C1281      C1286   1.415       .  A
C1281      C1299   1.451       .  S
C1282      C1287   1.508       .  S
C1282      C1283   1.411       .  A
C1283      C1284   1.411       .  A
C1283      C1288   1.451       .  S
C1284      C1285   1.417       .  A
C1284      C1300   1.447       .  S
C1285      C1286   1.418       .  A
C1286      C1289   1.446       .  S
C1287      C1290   1.413       .  A
C1287      C1294   1.413       .  A
C1288      N1305   1.157       .  T
C1289      N1307   1.157       .  T
C1290      C1291   1.415       .  A
C1290      C1295   1.452       .  S
C1291      C1292   1.421       .  A
C1291      C1297   1.452       .  S
C1292      C1293   1.420       .  A
C1293      C1294   1.413       .  A
C1293      C1296   1.452       .  S
C1294      C1298   1.452       .  S
C1295      N1302   1.157       .  T
C1296      N1303   1.158       .  T
C1297      N1301   1.158       .  T
C1298      N1304   1.157       .  T
C1299      N1308   1.157       .  T
C1309      C1310   1.413       .  A
C1309      C1314   1.414       .  A
C1309      C1327   1.450       .  S
C1310      C1315   1.495       .  S
C1310      C1311   1.408       .  A
C1311      C1312   1.405       .  A
C1311      C1316   1.452       .  S
C1312      C1313   1.418       .  A
C1312      C1328   1.453       .  S
C1313      C1314   1.412       .  A
C1314      C1317   1.449       .  S
C1315      C1318   1.411       .  A
C1315      C1322   1.412       .  A
C1316      N1333   1.157       .  T
C1317      N1335   1.157       .  T
C1318      C1319   1.412       .  A
C1318      C1323   1.450       .  S
C1319      C1320   1.413       .  A
C1319      C1325   1.450       .  S
C1320      C1321   1.413       .  A
C1321      C1322   1.408       .  A
C1321      C1324   1.453       .  S
C1322      C1326   1.452       .  S
C1323      N1330   1.157       .  T
C1324      N1331   1.157       .  T
C1325      N1329   1.157       .  T
C1326      N1332   1.157       .  T
C1327      N1336   1.157       .  T
C1337      C1338   1.409       .  A
C1337      C1342   1.413       .  A
C1337      C1355   1.450       .  S
C1338      C1343   1.493       .  S
C1338      C1339   1.409       .  A
C1339      C1340   1.407       .  A
C1339      C1344   1.452       .  S
C1340      C1341   1.417       .  A
C1340      C1356   1.453       .  S
C1341      C1342   1.413       .  A
C1343      C1346   1.412       .  A
C1343      C1350   1.407       .  A
C1344      N1361   1.157       .  T
C1345      N1363   1.157       .  T
C1346      C1347   1.410       .  A
C1346      C1351   1.451       .  S
C1347      C1348   1.413       .  A
C1347      C1353   1.450       .  S
C1348      C1349   1.418       .  A
C1349      C1350   1.410       .  A
C1349      C1352   1.451       .  S
C1350      C1354   1.450       .  S
C1351      N1358   1.157       .  T
C1352      N1359   1.157       .  T
C1353      N1357   1.157       .  T
C1354      N1360   1.157       .  T
C1355      N1364   1.157       .  T
C1356      N1362   1.157       .  T
C1365      C1366   1.413       .  A
C1365      C1370   1.410       .  A
C1365      C1383   1.452       .  S
C1366      C1371   1.499       .  S
C1366      C1367   1.409       .  A
C1367      C1368   1.411       .  A
C1367      C1372   1.451       .  S
C1368      C1369   1.422       .  A
C1368      C1384   1.452       .  S
C1369      C1370   1.417       .  A
C1370      C1373   1.452       .  S
C1371      C1374   1.411       .  A
C1371      C1378   1.410       .  A
C1372      N1389   1.157       .  T
C1373      N1391   1.158       .  T
C1374      C1375   1.414       .  A
C1374      C1379   1.451       .  S
C1375      C1376   1.415       .  A
C1375      C1381   1.449       .  S
C1376      C1377   1.416       .  A
C1377      C1378   1.407       .  A
C1377      C1380   1.451       .  S
C1378      C1382   1.453       .  S
C1379      N1386   1.157       .  T
C1380      N1387   1.157       .  T
C1382      N1388   1.157       .  T
C1383      N1392   1.157       .  T
C1384      N1390   1.158       .  T
C1393      C1394   1.409       .  A
C1393      C1398   1.414       .  A
C1393      C1411   1.450       .  S
C1394      C1399   1.508       .  S
C1394      C1395   1.411       .  A
C1395      C1396   1.418       .  A
C1395      C1400   1.450       .  S
C1396      C1397   1.417       .  A
C1396      C1412   1.445       .  S
C1397      C1398   1.415       .  A
C1398      C1401   1.445       .  S
C1399      C1402   1.413       .  A
C1399      C1406   1.411       .  A
C1400      N1417   1.157       .  T
C1401      N1419   1.157       .  T
C1402      C1403   1.419       .  A
C1402      C1407   1.450       .  S
C1403      C1404   1.417       .  A
C1403      C1409   1.449       .  S
C1404      C1405   1.417       .  A
C1405      C1406   1.414       .  A
C1405      C1408   1.451       .  S
C1406      C1410   1.451       .  S
C1407      N1414   1.157       .  T
C1408      N1415   1.157       .  T
C1409      N1413   1.157       .  T
C1410      N1416   1.157       .  T
C1411      N1420   1.157       .  T
C1412      N1418   1.157       .  T
C1421      C1422   1.410       .  A
C1421      C1426   1.413       .  A
C1421      C1439   1.450       .  S
C1422      C1427   1.495       .  S
C1422      C1423   1.408       .  A
C1423      C1424   1.406       .  A
C1423      C1428   1.452       .  S
C1424      C1425   1.418       .  A
C1425      C1426   1.414       .  A
C1426      C1429   1.448       .  S
C1427      C1430   1.407       .  A
C1427      C1434   1.413       .  A
C1428      N1445   1.157       .  T
C1429      N1447   1.157       .  T
C1430      C1431   1.410       .  A
C1430      C1435   1.450       .  S
C1431      C1432   1.418       .  A
C1431      C1437   1.451       .  S
C1432      C1433   1.414       .  A
C1433      C1434   1.411       .  A
C1433      C1436   1.451       .  S
C1434      C1438   1.452       .  S
C1435      N1442   1.157       .  T
C1436      N1443   1.157       .  T
C1437      N1441   1.157       .  T
C1438      N1444   1.157       .  T
C1439      N1448   1.157       .  T
C1440      N1446   1.157       .  T
C1449      C1450   1.414       .  A
C1449      C1454   1.410       .  A
C1449      C1467   1.451       .  S
C1450      C1455   1.495       .  S
C1450      C1451   1.409       .  A
C1451      C1452   1.407       .  A
C1451      C1456   1.453       .  S
C1452      C1453   1.415       .  A
C1452      C1468   1.450       .  S
C1453      C1454   1.411       .  A
C1454      C1457   1.451       .  S
C1455      C1458   1.409       .  A
C1455      C1462   1.413       .  A
C1456      N1473   1.157       .  T
C1457      N1475   1.157       .  T
C1458      C1459   1.407       .  A
C1458      C1463   1.452       .  S
C1459      C1460   1.420       .  A
C1459      C1465   1.453       .  S
C1460      C1461   1.412       .  A
C1461      C1462   1.410       .  A
C1461      C1464   1.448       .  S
C1462      C1466   1.452       .  S
C1463      N1470   1.157       .  T
C1465      N1469   1.157       .  T
C1466      N1472   1.157       .  T
C1467      N1476   1.157       .  T
C1468      N1474   1.157       .  T
C1477      C1478   1.411       .  A
C1477      C1482   1.415       .  A
C1477      C1495   1.452       .  S
C1478      C1483   1.509       .  S
C1478      C1479   1.412       .  A
C1479      C1480   1.415       .  A
C1479      C1484   1.451       .  S
C1480      C1481   1.417       .  A
C1481      C1482   1.418       .  A
C1482      C1485   1.447       .  S
C1483      C1486   1.414       .  A
C1483      C1490   1.412       .  A
C1484      N1501   1.157       .  T
C1485      N1503   1.157       .  T
C1486      C1487   1.416       .  A
C1486      C1491   1.451       .  S
C1487      C1488   1.417       .  A
C1487      C1493   1.450       .  S
C1488      C1489   1.421       .  A
C1489      C1490   1.414       .  A
C1489      C1492   1.452       .  S
C1490      C1494   1.452       .  S
C1491      N1498   1.157       .  T
C1492      N1499   1.158       .  T
C1493      N1497   1.157       .  T
C1494      N1500   1.157       .  T
C1495      N1504   1.157       .  T
C1496      N1502   1.157       .  T
C1505      C1506   1.409   1_545  A
C1505      C1510   1.410       .  A
C1505      C1523   1.451       .  S
C1506      C1511   1.488       .  S
C1506      C1507   1.407       .  A
C1507      C1508   1.405       .  A
C1507      C1512   1.452       .  S
C1508      C1509   1.417       .  A
C1508      C1524   1.453       .  S
C1509      C1510   1.413   1_565  A
C1510      C1513   1.448       .  S
C1511      C1514   1.411   1_565  A
C1511      C1518   1.407       .  A
C1512      N1529   1.157       .  T
C1513      N1531   1.157       .  T
C1514      C1515   1.407       .  A
C1514      C1519   1.452       .  S
C1515      C1516   1.414   1_545  A
C1515      C1521   1.452       .  S
C1516      C1517   1.416       .  A
C1517      C1518   1.409       .  A
C1517      C1520   1.451       .  S
C1518      C1522   1.450       .  S
C1519      N1526   1.157       .  T
C1520      N1527   1.157       .  T
C1521      N1525   1.157       .  T
C1522      N1528   1.157       .  T
C1523      N1532   1.157       .  T
C1524      N1530   1.157       .  T
C1533      C1534   1.412       .  A
C1533      C1538   1.410       .  A
C1533      C1551   1.452       .  S
C1534      C1539   1.498       .  S
C1534      C1535   1.408       .  A
C1535      C1536   1.412       .  A
C1535      C1540   1.451       .  S
C1536      C1537   1.422       .  A
C1536      C1552   1.452       .  S
C1537      C1538   1.416       .  A
C1538      C1541   1.451       .  S
C1539      C1542   1.411       .  A
C1539      C1546   1.410   1_565  A
C1540      N1557   1.157       .  T
C1541      N1559   1.157       .  T
C1542      C1543   1.413       .  A
C1542      C1547   1.451       .  S
C1543      C1544   1.414       .  A
C1543      C1549   1.449       .  S
C1544      C1545   1.415   1_565  A
C1545      C1546   1.406       .  A
C1545      C1548   1.451       .  S
C1546      C1550   1.451       .  S
C1547      N1554   1.157       .  T
C1548      N1555   1.158       .  T
C1550      N1556   1.157       .  T
C1551      N1560   1.157       .  T
C1552      N1558   1.158       .  T
C1561      C1562   1.413       .  A
C1561      C1566   1.417       .  A
C1561      C1579   1.450       .  S
C1562      C1567   1.506   1_545  S
C1562      C1563   1.410   1_545  A
C1563      C1564   1.413   1_565  A
C1563      C1568   1.452       .  S
C1564      C1565   1.420       .  A
C1564      C1580   1.451   1_545  S
C1565      C1566   1.417       .  A
C1566      C1569   1.450       .  S
C1567      C1570   1.410   1_565  A
C1567      C1574   1.412       .  A
C1568      N1585   1.157       .  T
C1569      N1587   1.157       .  T
C1570      C1571   1.411       .  A
C1570      C1575   1.451       .  S
C1571      C1572   1.414   1_545  A
C1572      C1573   1.416       .  A
C1573      C1574   1.418       .  A
C1573      C1576   1.446       .  S
C1574      C1578   1.450       .  S
C1575      N1582   1.157       .  T
C1576      N1583   1.157       .  T
C1577      N1581   1.157   1_554  T
C1578      N1584   1.157       .  T
C1579      N1588   1.157       .  T
C1580      N1586   1.157       .  T
C1589      C1590   1.410       .  A
C1589      C1594   1.406       .  A
C1589      C1607   1.452       .  S
C1590      C1595   1.492       .  S
C1590      C1591   1.409   1_545  A
C1591      C1592   1.413       .  A
C1591      C1596   1.450       .  S
C1592      C1593   1.418   1_565  A
C1592      C1608   1.451       .  S
C1593      C1594   1.414       .  A
C1594      C1597   1.451       .  S
C1595      C1598   1.410       .  A
C1595      C1602   1.406   1_545  A
C1596      N1613   1.157       .  T
C1597      N1615   1.157       .  T
C1598      C1599   1.413       .  A
C1598      C1603   1.450       .  S
C1599      C1600   1.414       .  A
C1599      C1605   1.448       .  S
C1600      C1601   1.419   1_545  A
C1601      C1602   1.405       .  A
C1602      C1606   1.452       .  S
C1603      N1610   1.157       .  T
C1604      N1611   1.157       .  T
C1605      N1609   1.157       .  T
C1606      N1612   1.157       .  T
C1607      N1616   1.157       .  T
C1608      N1614   1.157       .  T
C1617      C1618   1.407       .  A
C1617      C1622   1.408       .  A
C1617      C1635   1.452       .  S
C1618      C1623   1.495       .  S
C1618      C1619   1.409       .  A
C1619      C1620   1.413       .  A
C1619      C1624   1.451   1_545  S
C1620      C1621   1.416       .  A
C1620      C1636   1.447   1_545  S
C1621      C1622   1.420       .  A
C1622      C1625   1.452       .  S
C1623      C1626   1.406       .  A
C1623      C1630   1.413       .  A
C1624      N1641   1.157       .  T
C1626      C1627   1.410       .  A
C1626      C1631   1.452       .  S
C1627      C1628   1.422       .  A
C1627      C1633   1.452       .  S
C1628      C1629   1.415       .  A
C1629      C1630   1.411       .  A
C1629      C1632   1.451       .  S
C1630      C1634   1.451       .  S
C1631      N1638   1.157       .  T
C1632      N1639   1.157       .  T
C1633      N1637   1.157       .  T
C1634      N1640   1.157       .  T
C1635      N1644   1.157       .  T
C1636      N1642   1.157       .  T
C1645      C1646   1.411       .  A
C1645      C1650   1.410       .  A
C1645      C1663   1.451       .  S
C1646      C1651   1.505   1_545  S
C1646      C1647   1.413   1_545  A
C1647      C1648   1.416       .  A
C1647      C1652   1.450       .  S
C1648      C1649   1.416   1_565  A
C1648      C1664   1.447       .  S
C1649      C1650   1.413       .  A
C1650      C1653   1.447       .  S
C1651      C1654   1.412       .  A
C1651      C1658   1.412       .  A
C1652      N1669   1.157       .  T
C1653      N1671   1.157       .  T
C1654      C1655   1.416       .  A
C1654      C1659   1.450       .  S
C1655      C1656   1.419       .  A
C1655      C1661   1.451       .  S
C1656      C1657   1.420       .  A
C1657      C1658   1.411       .  A
C1657      C1660   1.452       .  S
C1658      C1662   1.453   1_565  S
C1659      N1666   1.157       .  T
C1660      N1667   1.158       .  T
C1661      N1665   1.157       .  T
C1662      N1668   1.157       .  T
C1663      N1672   1.157       .  T
C1673      C1674   1.411       .  A
C1673      C1678   1.410       .  A
C1673      C1691   1.451       .  S
C1674      C1679   1.493       .  S
C1674      C1675   1.406       .  A
C1675      C1676   1.410       .  A
C1675      C1680   1.451       .  S
C1676      C1677   1.421       .  A
C1676      C1692   1.451       .  S
C1677      C1678   1.414       .  A
C1678      C1681   1.450       .  S
C1679      C1682   1.407       .  A
C1679      C1686   1.409   1_655  A
C1680      N1697   1.157       .  T
C1681      N1699   1.157       .  T
C1682      C1683   1.407       .  A
C1682      C1687   1.451       .  S
C1683      C1684   1.418       .  A
C1683      C1689   1.452       .  S
C1684      C1685   1.414   1_655  A
C1685      C1686   1.411       .  A
C1685      C1688   1.449       .  S
C1686      C1690   1.451       .  S
C1687      N1694   1.157       .  T
C1688      N1695   1.157       .  T
C1689      N1693   1.157       .  T
C1690      N1696   1.157       .  T
C1691      N1700   1.157       .  T
C1692      N1698   1.157       .  T
C1701      C1702   1.413       .  A
C1701      C1706   1.416       .  A
C1701      C1719   1.450       .  S
C1702      C1707   1.505       .  S
C1702      C1703   1.411   1_455  A
C1703      C1704   1.410       .  A
C1703      C1708   1.452       .  S
C1704      C1705   1.414   1_655  A
C1704      C1720   1.447       .  S
C1705      C1706   1.415       .  A
C1706      C1709   1.447       .  S
C1707      C1710   1.413       .  A
C1707      C1714   1.410       .  A
C1708      N1725   1.157       .  T
C1710      C1711   1.417       .  A
C1710      C1715   1.450       .  S
C1711      C1712   1.419       .  A
C1711      C1717   1.450       .  S
C1712      C1713   1.422       .  A
C1713      C1714   1.410       .  A
C1713      C1716   1.452       .  S
C1714      C1718   1.453       .  S
C1715      N1722   1.157       .  T
C1716      N1723   1.157       .  T
C1717      N1721   1.157       .  T
C1718      N1724   1.157       .  T
C1719      N1728   1.157       .  T
C1720      N1726   1.157       .  T
C1729      C1730   1.411   1_655  A
C1729      C1734   1.407       .  A
C1729      C1747   1.452       .  S
C1730      C1735   1.490       .  S
C1730      C1731   1.408       .  A
C1731      C1732   1.411       .  A
C1731      C1736   1.450       .  S
C1732      C1733   1.416       .  A
C1732      C1748   1.451       .  S
C1733      C1734   1.413   1_455  A
C1734      C1737   1.452       .  S
C1735      C1738   1.406       .  A
C1735      C1742   1.409       .  A
C1736      N1753   1.157       .  T
C1737      N1755   1.157       .  T
C1738      C1739   1.406       .  A
C1738      C1743   1.451       .  S
C1739      C1740   1.419       .  A
C1739      C1745   1.453       .  S
C1740      C1741   1.414   1_455  A
C1741      C1742   1.411   1_655  A
C1741      C1744   1.447       .  S
C1742      C1746   1.451   1_455  S
C1743      N1750   1.157       .  T
C1744      N1751   1.157       .  T
C1746      N1752   1.157       .  T
C1747      N1756   1.157       .  T
C1748      N1754   1.157       .  T
C1757      C1758   1.412   1_455  A
C1757      C1762   1.413       .  A
C1757      C1775   1.451   1_455  S
C1758      C1763   1.503       .  S
C1758      C1759   1.410   1_655  A
C1759      C1760   1.413       .  A
C1759      C1764   1.450       .  S
C1760      C1761   1.420       .  A
C1760      C1776   1.451       .  S
C1761      C1762   1.418       .  A
C1762      C1765   1.452       .  S
C1763      C1766   1.411       .  A
C1763      C1770   1.409   1_655  A
C1764      N1781   1.157       .  T
C1765      N1783   1.158       .  T
C1766      C1767   1.413       .  A
C1766      C1771   1.451       .  S
C1767      C1768   1.417       .  A
C1767      C1773   1.450       .  S
C1768      C1769   1.416       .  A
C1769      C1770   1.413   1_655  A
C1769      C1772   1.447   1_655  S
C1770      C1774   1.451       .  S
C1771      N1778   1.157       .  T
C1773      N1777   1.157       .  T
C1774      N1780   1.157       .  T
C1775      N1784   1.157       .  T
C1776      N1782   1.157       .  T
C1785      C1786   1.408       .  A
C1785      C1790   1.412       .  A
C1785      C1803   1.450   1_655  S
C1786      C1791   1.492       .  S
C1786      C1787   1.407       .  A
C1787      C1788   1.407       .  A
C1787      C1792   1.451       .  S
C1788      C1789   1.415       .  A
C1788      C1804   1.448       .  S
C1789      C1790   1.415       .  A
C1790      C1793   1.445   1_655  S
C1791      C1794   1.410       .  A
C1791      C1798   1.408       .  A
C1792      N1809   1.157       .  T
C1793      N1811   1.157       .  T
C1794      C1795   1.412       .  A
C1794      C1799   1.450       .  S
C1795      C1796   1.416       .  A
C1795      C1801   1.451       .  S
C1796      C1797   1.419       .  A
C1797      C1798   1.408       .  A
C1797      C1800   1.452       .  S
C1798      C1802   1.452       .  S
C1799      N1806   1.157       .  T
C1800      N1807   1.158       .  T
C1801      N1805   1.157       .  T
C1802      N1808   1.157       .  T
C1803      N1812   1.157       .  T
C1813      C1814   1.409   1_455  A
C1813      C1818   1.406   1_455  A
C1813      C1831   1.451       .  S
C1814      C1819   1.496       .  S
C1814      C1815   1.412       .  A
C1815      C1816   1.414       .  A
C1815      C1820   1.450       .  S
C1816      C1817   1.412       .  A
C1817      C1818   1.415       .  A
C1818      C1821   1.452   1_655  S
C1819      C1822   1.409       .  A
C1819      C1826   1.407   1_655  A
C1820      N1837   1.157       .  T
C1821      N1839   1.157   1_556  T
C1822      C1823   1.410       .  A
C1822      C1827   1.452       .  S
C1823      C1824   1.422       .  A
C1823      C1829   1.452       .  S
C1824      C1825   1.424   1_655  A
C1825      C1826   1.413       .  A
C1825      C1828   1.451       .  S
C1826      C1830   1.451       .  S
C1827      N1834   1.157       .  T
C1828      N1835   1.158       .  T
C1829      N1833   1.157       .  T
C1830      N1836   1.157       .  T
C1831      N1840   1.157       .  T
C1832      N1838   1.157       .  T
