geometry optimzed in LAMMPS
_audit_creation_date              2020-12-01 
_audit_creation_method            'lammps2cif' 
_symmetry_space_group_name_H-M    'P1' 
_symmetry_Int_Tables_number       1 
_symmetry_cell_setting            triclinic 
loop_ 
_symmetry_equiv_pos_as_xyz 
  x,y,z 
_cell_length_a                    39.09780235 
_cell_length_b                    28.432898734213378 
_cell_length_c                    41.25755356676462 
_cell_angle_alpha                 90.22324685074804 
_cell_angle_beta                  96.19892221467725 
_cell_angle_gamma                 89.65630473796377 
loop_ 
_atom_site_label 
_atom_site_type_symbol 
_atom_site_fract_x 
_atom_site_fract_y 
_atom_site_fract_z 
_atom_site_charge 
In1        In  0.34728645  0.64202665  0.04874248     1.36900
C2          C  0.35833295  0.70880318  0.00620515     0.78100
O3          O  0.29399478  0.66928049  0.05014144    -0.60300
O4          O  0.32128557  0.64705473  0.09488143    -0.51200
C5          C  0.31964464  0.56008801  0.02730600     0.70800
O6          O  0.32192154  0.59516490  0.00910745    -0.46100
C7          C  0.40986992  0.64982295  0.08182331     0.75500
O8          O  0.37297311  0.66915794  0.00599282    -0.58000
O9          O  0.38390056  0.67237204  0.08923860    -0.48000
O10         O  0.33721563  0.71322063  0.02702833    -0.54400
C11         C  0.29325834  0.66191658  0.08017077     0.85700
O12         O  0.33549435  0.56495319  0.05541454    -0.56300
O13         O  0.40316654  0.62025476  0.05909534    -0.59600
In14       In  0.11165203  0.72109295  0.16517490     1.36900
C15         C  0.12388117  0.81140393  0.15276589     0.78100
O16         O  0.16895578  0.71142458  0.16943258    -0.60300
O17         O  0.13940331  0.68694630  0.12650727    -0.51200
C18         C  0.11455156  0.68319945  0.22481848     0.70800
O19         O  0.10528187  0.72512120  0.21875374    -0.46100
C20         C  0.04783213  0.69750451  0.13916637     0.75500
O21         O  0.12015768  0.79715971  0.18109114    -0.58000
O22         O  0.07436392  0.67463589  0.13384762    -0.48000
O23         O  0.11926919  0.78026718  0.13101607    -0.54400
C24         C  0.16897425  0.69317159  0.14148447     0.85700
O25         O  0.12257591  0.66077698  0.20030894    -0.56300
O26         O  0.05401502  0.73267209  0.15748771    -0.59600
C27         C  0.38420722  0.88276965  0.94060939     0.30500
C28         C  0.38746412  0.97054075  0.91382459     0.30500
C29         C  0.36278601  0.92126140  0.95513140    -0.05700
C30         C  0.42037842  0.90523582  0.94413161    -0.06400
C31         C  0.37289736  0.88673385  0.90383614    -0.06300
C32         C  0.36349100  0.96552557  0.94112084    -0.05700
C33         C  0.42174180  0.94955868  0.92931636    -0.06400
C34         C  0.37392958  0.93131162  0.89018596    -0.06300
C35         C  0.34067032  0.99327780  0.95624820    -0.31700
N36         N  0.32789208  0.96767951  0.97997069     0.14800
C37         C  0.34123502  0.92360942  0.97932291    -0.31700
H38         H  0.33495023  0.89492291  0.99473558     0.16700
C39         C  0.45040548  0.97222394  0.94356367    -0.30700
N40         N  0.46603994  0.94524520  0.96760244     0.13500
C41         C  0.44718286  0.90548462  0.96928852    -0.30700
C42         C  0.36143194  0.92678378  0.85779075    -0.31000
N43         N  0.35463817  0.88070655  0.85112710     0.14000
H44         H  0.35698320  0.95479994  0.84020591     0.16600
C45         C  0.36151486  0.85599841  0.87923160    -0.31000
H46         H  0.35957937  0.81825935  0.88156031     0.16600
H47         H  0.45089936  0.88067505  0.98916663     0.16600
H48         H  0.33399727  0.02954339  0.95061962     0.16700
H49         H  0.45693449  0.00852504  0.93963654     0.16600
In50       In  0.19433897  0.32576069  0.97196379     1.36900
C51         C  0.17864468  0.25629232  0.01059452     0.78100
O52         O  0.13856013  0.35018446  0.96725001    -0.60300
O53         O  0.15711223  0.31225988  0.92837909    -0.51200
C54         C  0.22635749  0.40481193  0.99299500     0.70800
O55         O  0.22398464  0.36947109  0.01095099    -0.46100
C56         C  0.24747409  0.29917279  0.94146491     0.75500
O57         O  0.18280578  0.29801826  0.02088880    -0.58000
O58         O  0.22187703  0.32055962  0.92715202    -0.48000
O59         O  0.18360145  0.25037365  0.98117957    -0.54400
C60         C  0.13146394  0.32996621  0.93998040     0.85700
O61         O  0.20871171  0.40175875  0.96558247    -0.56300
O62         O  0.24472205  0.28892302  0.97076654    -0.59600
In63       In  0.43211644  0.24938479  0.86015312     1.36900
C64         C  0.42408787  0.15848068  0.87268386     0.78100
O65         O  0.49003297  0.24701629  0.86348083    -0.60300
O66         O  0.46690380  0.29572619  0.89344947    -0.51200
C67         C  0.42435553  0.29250609  0.80274910     0.70800
O68         O  0.43434064  0.25020059  0.80580477    -0.46100
C69         C  0.37387135  0.27008119  0.88425399     0.75500
O70         O  0.42367233  0.17326207  0.84381499    -0.58000
O71         O  0.40294602  0.27470078  0.90044157    -0.48000
O72         O  0.43178858  0.18923330  0.89417049    -0.54400
C73         C  0.49441608  0.27913094  0.88471656     0.85700
O74         O  0.41932749  0.31253077  0.82917215    -0.56300
O75         O  0.37475562  0.25729289  0.85505221    -0.59600
C76         C  0.15349738  0.00332279  0.11467062     0.30500
C77         C  0.15124065  0.09111862  0.08654370     0.30500
C78         C  0.18302737  0.01474498  0.09361911    -0.05700
C79         C  0.12132442  0.01515370  0.09157178    -0.06400
C80         C  0.15550531  0.04563187  0.13848098    -0.06300
C81         C  0.18122722  0.05927870  0.07960913    -0.05700
C82         C  0.11970839  0.05937431  0.07714116    -0.06400
C83         C  0.15352703  0.09012885  0.12407292    -0.06300
C84         C  0.20760158  0.06342610  0.06047757    -0.31700
N85         N  0.22575218  0.02267762  0.06188632     0.14800
C86         C  0.21178006  0.99327081  0.08283500    -0.31700
H87         H  0.22164296  0.95849564  0.08894450     0.16700
C88         C  0.08948119  0.06030911  0.05626012    -0.30700
N89         N  0.07368160  0.01791840  0.05746480     0.13500
C90         C  0.09286498  0.99033437  0.07911434    -0.30700
C91         C  0.15153691  0.12240480  0.14872058    -0.31000
N92         N  0.15430224  0.09961122  0.17777573     0.14000
H93         H  0.14777191  0.15986521  0.14563846     0.16600
C94         C  0.15691173  0.05269237  0.17170121    -0.31000
H95         H  0.15828727  0.02539801  0.18993543     0.16600
H96         H  0.08764808  0.95378397  0.08382951     0.16600
H97         H  0.21275822  0.09379709  0.04609379     0.16700
H98         H  0.07993307  0.08892000  0.04055431     0.16600
In99       In  0.40795690  0.15200828  0.47562110     1.36900
C100        C  0.39528989  0.21839483  0.51859314     0.78100
O101        O  0.46165734  0.17714369  0.47628776    -0.60300
O102        O  0.43379800  0.16256748  0.43018854    -0.51200
C103        C  0.43667268  0.06971138  0.49468706     0.70800
O104        O  0.43079831  0.10185023  0.51454256    -0.46100
C105        C  0.34629032  0.15519613  0.44083344     0.75500
O106        O  0.38006432  0.17936149  0.51717054    -0.58000
O107        O  0.37131096  0.18008685  0.43443057    -0.48000
O108        O  0.41765680  0.22262074  0.49902917    -0.54400
C109        C  0.46223525  0.17358329  0.44587257     0.85700
O110        O  0.42380437  0.07740714  0.46586808    -0.56300
O111        O  0.35358734  0.12624011  0.46373728    -0.59600
In112      In  0.14369407  0.22365130  0.36109188     1.36900
C113        C  0.12925468  0.31306276  0.37417611     0.78100
O114        O  0.08803487  0.20383408  0.35575728    -0.60300
O115        O  0.11668148  0.19511073  0.40193465    -0.51200
C116        C  0.14600861  0.18672875  0.30247352     0.70800
O117        O  0.14594329  0.23066769  0.30720978    -0.46100
C118        C  0.20782693  0.19958778  0.38419419     0.75500
O119        O  0.12029312  0.29449098  0.34681288    -0.58000
O120        O  0.18151673  0.18017617  0.39328806    -0.48000
O121        O  0.14833909  0.28731377  0.39332698    -0.54400
C122        C  0.08760107  0.19403981  0.38543401     0.85700
O123        O  0.14417608  0.16211933  0.32759734    -0.56300
O124        O  0.20119627  0.23235004  0.36380726    -0.59600
C125        C  0.36852978  0.38966734  0.58837934     0.30500
C126        C  0.36564128  0.47713062  0.61613009     0.30500
C127        C  0.39273069  0.42654653  0.57671042    -0.05700
C128        C  0.33337687  0.41511317  0.58209071    -0.06400
C129        C  0.37646461  0.39213151  0.62562675    -0.06300
C130        C  0.39218010  0.47077462  0.59105855    -0.05700
C131        C  0.33207204  0.45956326  0.59715454    -0.06400
C132        C  0.37563950  0.43643790  0.63986653    -0.06300
C133        C  0.41740129  0.49671049  0.57814319    -0.31700
N134        N  0.43161144  0.46987979  0.55564074     0.14800
C135        C  0.41649261  0.42712944  0.55460265    -0.31700
H136        H  0.42224798  0.39853632  0.53863937     0.16700
C137        C  0.30671850  0.48548835  0.57954545    -0.30700
N138        N  0.29282940  0.45975248  0.55400963     0.13500
C139        C  0.30972840  0.41790542  0.55445046    -0.30700
C140        C  0.38639373  0.43064025  0.67262781    -0.31000
N141        N  0.39199288  0.38399174  0.67879993     0.14000
H142        H  0.39086053  0.45857222  0.69039222     0.16600
C143        C  0.38616144  0.36042104  0.65000963    -0.31000
H144        H  0.38855456  0.32279298  0.64688672     0.16600
H145        H  0.30744849  0.39352288  0.53417483     0.16600
H146        H  0.42550111  0.53197190  0.58507860     0.16700
H147        H  0.30079905  0.52213579  0.58355202     0.16600
In148      In  0.05446068  0.82993186  0.55206501     1.36900
C149        C  0.06879869  0.75963306  0.51321544     0.78100
O150        O  0.11050486  0.85100012  0.55802845    -0.60300
O151        O  0.09097559  0.81192102  0.59549988    -0.51200
C152        C  0.02716991  0.91210721  0.53166444     0.70800
O153        O  0.02931689  0.87740549  0.51284317    -0.46100
C154        C  0.99997475  0.80799564  0.58185835     0.75500
O155        O  0.06702227  0.80171602  0.50343718    -0.58000
O156        O  0.02654127  0.82643320  0.59651108    -0.48000
O157        O  0.06157176  0.75387173  0.54195958    -0.54400
C158        C  0.11697998  0.82937446  0.58472945     0.85700
O159        O  0.04258794  0.90639211  0.55985509    -0.56300
O160        O  0.00198975  0.79894449  0.55215362    -0.59600
In161      In  0.31772344  0.75718823  0.66620971     1.36900
C162        C  0.32761615  0.66647685  0.65404131     0.78100
O163        O  0.26004313  0.75232320  0.66327855    -0.60300
O164        O  0.28151946  0.80235830  0.63360741    -0.51200
C165        C  0.32445809  0.79870562  0.72406805     0.70800
O166        O  0.31681204  0.75575337  0.72041842    -0.46100
C167        C  0.37497851  0.77975846  0.64130999     0.75500
O168        O  0.32701525  0.68160235  0.68277225    -0.58000
O169        O  0.34567643  0.78214887  0.62527843    -0.48000
O170        O  0.32003834  0.69674969  0.63229357    -0.54400
C171        C  0.25461579  0.78421729  0.64214984     0.85700
O172        O  0.32767372  0.82037964  0.69794666    -0.56300
O173        O  0.37478501  0.76866683  0.67085935    -0.59600
C174        C  0.09880584  0.50447071  0.41226925     0.30500
C175        C  0.09941567  0.59245845  0.43987552     0.30500
C176        C  0.07166465  0.51415629  0.43578962    -0.05700
C177        C  0.13250117  0.51954900  0.43230814    -0.06400
C178        C  0.09333948  0.54586730  0.38767012    -0.06300
C179        C  0.07200479  0.55866869  0.44928696    -0.05700
C180        C  0.13294834  0.56367380  0.44694211    -0.06400
C181        C  0.09373446  0.59107154  0.40218592    -0.06300
C182        C  0.04740728  0.56029572  0.47064533    -0.31700
N183        N  0.03225194  0.51762311  0.47105070     0.14800
C184        C  0.04679357  0.48905937  0.44964782    -0.31700
H185        H  0.04011554  0.45267602  0.44470223     0.16700
C186        C  0.16376012  0.56661653  0.46691016    -0.30700
N187        N  0.18150933  0.52554115  0.46460459     0.13500
C188        C  0.16304309  0.49760683  0.44266002    -0.30700
C189        C  0.10372546  0.62202555  0.37939701    -0.31000
N190        N  0.10653959  0.59932881  0.35092005     0.14000
H191        H  0.11173357  0.65793654  0.38423095     0.16600
C192        C  0.10263733  0.55267353  0.35643331    -0.31000
H193        H  0.10845306  0.52545057  0.33956695     0.16600
H194        H  0.17069549  0.46257280  0.43601662     0.16600
H195        H  0.04196202  0.58984074  0.48592200     0.16700
H196        H  0.17148428  0.59498325  0.48359205     0.16600
C197        C  0.08043190  0.67903534  0.44180150    -0.20800
C198        C  0.09666981  0.63951000  0.45759272    -0.08800
C199        C  0.10385989  0.64126017  0.49187176     0.30000
C200        C  0.09534193  0.68087585  0.50936939    -0.20800
C201        C  0.07938488  0.71989797  0.49345930    -0.08800
C202        C  0.07259543  0.71918610  0.45939777     0.30100
F203        F  0.05616147  0.75582880  0.44332595    -0.19300
H204        H  0.07134114  0.67829287  0.41620751     0.18400
H205        H  0.10047853  0.68050671  0.53569886     0.18400
F206        F  0.11608342  0.60297107  0.50900361    -0.19300
C207        C  0.18086939  0.83722422  0.58629790    -0.20800
C208        C  0.15221220  0.82209642  0.60115756    -0.08800
C209        C  0.15769470  0.79602230  0.63027705     0.30000
C210        C  0.19104783  0.78446357  0.64359435    -0.20800
C211        C  0.21964517  0.79873442  0.62839537    -0.08800
C212        C  0.21429702  0.82579240  0.59974549     0.30100
F213        F  0.24122986  0.83977130  0.58401882    -0.19300
H214        H  0.17739953  0.85686079  0.56372753     0.18400
H215        H  0.19447269  0.76382659  0.66573654     0.18400
F216        F  0.13086626  0.78053441  0.64556837    -0.19300
C217        C  0.43859085  0.78436354  0.57883507    -0.20800
C218        C  0.46858318  0.79925477  0.59775462    -0.08800
C219        C  0.46759849  0.80761346  0.63132514     0.30000
C220        C  0.43703259  0.80122218  0.64545656    -0.20800
C221        C  0.40694566  0.78732424  0.62629747    -0.08800
C222        C  0.40800013  0.77862866  0.59286545     0.30100
F223        F  0.37968515  0.76341697  0.57385998    -0.19300
H224        H  0.43866921  0.77761746  0.55298387     0.18400
H225        H  0.43676123  0.80769351  0.67132325     0.18400
F226        F  0.49599941  0.82217212  0.65048684    -0.19300
C227        C  0.98242528  0.44968012  0.52791836    -0.20800
C228        C  0.45799546  0.48320028  0.53571140    -0.08800
C229        C  0.45860538  0.52838864  0.52210129     0.30000
C230        C  0.98270898  0.53913730  0.50056322    -0.20800
C231        C  0.00680095  0.50529669  0.49233658    -0.08800
C232        C  0.00665834  0.46051166  0.50661779     0.30100
F233        F  0.03061602  0.42766836  0.50095831    -0.19300
H234        H  0.98287640  0.41493273  0.53860124     0.18400
H235        H  0.48224334  0.57388429  0.48989163     0.18400
F236        F  0.43515250  0.56155947  0.52854396    -0.19300
C237        C  0.26482399  0.52320171  0.51960009    -0.20800
C238        C  0.26629074  0.47584057  0.52960449    -0.08800
C239        C  0.24005421  0.44524366  0.51720892     0.30000
C240        C  0.21262408  0.46186937  0.49585796    -0.20800
C241        C  0.21075884  0.50931451  0.48604866    -0.08800
C242        C  0.23734149  0.53987208  0.49799051     0.30100
F243        F  0.23699110  0.58552218  0.48852646    -0.19300
H244        H  0.28498974  0.54734528  0.52858630     0.18400
H245        H  0.19218138  0.43766834  0.48776617     0.18400
F246        F  0.23995696  0.39979632  0.52711460    -0.19300
C247        C  0.36337736  0.56537512  0.60868452    -0.20800
C248        C  0.36058372  0.52674765  0.62953765    -0.08800
C249        C  0.34398565  0.53469371  0.65797801     0.30000
C250        C  0.33427870  0.58030296  0.66662494    -0.20800
C251        C  0.33835876  0.61836335  0.64594306    -0.08800
C252        C  0.35287298  0.61032800  0.61677024     0.30100
F253        F  0.35652428  0.64589987  0.59555426    -0.19300
H254        H  0.37132969  0.56075988  0.58465354     0.18400
H255        H  0.32197035  0.58549287  0.68867027     0.18400
F256        F  0.33435704  0.49838660  0.67606866    -0.19300
C257        C  0.10069487  0.39102858  0.36039791    -0.20800
C258        C  0.11747505  0.36028269  0.38364644    -0.08800
C259        C  0.12095450  0.37404818  0.41655942     0.30000
C260        C  0.11113664  0.41912621  0.42529952    -0.20800
C261        C  0.09973185  0.45279855  0.40148554    -0.08800
C262        C  0.09125561  0.43667238  0.36928889     0.30100
F263        F  0.07194046  0.46313270  0.34699051    -0.19300
H264        H  0.09500766  0.37982640  0.33528736     0.18400
H265        H  0.11484426  0.42890213  0.45084040     0.18400
F266        F  0.13415220  0.34424428  0.44041401    -0.19300
C267        C  0.99487645  0.96283651  0.48919862    -0.20800
C268        C  0.00592082  0.95423578  0.52217759    -0.08800
C269        C  0.99337084  0.98327384  0.54603249     0.30000
C270        C  0.47027179  0.01994720  0.53694666    -0.20800
C271        C  0.45899261  0.02838694  0.50398186    -0.08800
C272        C  0.97182063  0.99957436  0.48009226     0.30100
F273        F  0.96262518  0.00725423  0.44786879    -0.19300
H274        H  0.00394183  0.94082489  0.47037577     0.18400
H275        H  0.46112727  0.04177816  0.55582056     0.18400
F276        F  0.00235129  0.97521404  0.57824282    -0.19300
C277        C  0.34659750  0.31391652  0.55853228    -0.20800
C278        C  0.37378210  0.34053411  0.57432607    -0.08800
C279        C  0.40738371  0.32126475  0.57618399     0.30000
C280        C  0.41406540  0.28084657  0.55857789    -0.20800
C281        C  0.38725138  0.25693307  0.54049931    -0.08800
C282        C  0.35326434  0.27261455  0.54155550     0.30100
F283        F  0.32673873  0.24968204  0.52451079    -0.19300
H284        H  0.32018377  0.32482622  0.55895542     0.18400
H285        H  0.44035959  0.26854634  0.55866013     0.18400
F286        F  0.43421267  0.34293011  0.59374023    -0.19300
C287        C  0.24883091  0.15428182  0.42333930    -0.20800
C288        C  0.24339503  0.18520332  0.39674899    -0.08800
C289        C  0.27219556  0.20245200  0.38289208     0.30000
C290        C  0.30556210  0.19105270  0.39660813    -0.20800
C291        C  0.31099606  0.16176330  0.42408961    -0.08800
C292        C  0.28218691  0.14256104  0.43688641     0.30100
F293        F  0.28608693  0.11404614  0.46334898    -0.19300
H294        H  0.22717086  0.14002043  0.43427284     0.18400
H295        H  0.32723298  0.20596886  0.38604426     0.18400
F296        F  0.26822963  0.23060591  0.35624188    -0.19300
C297        C  0.05662701  0.18178518  0.43421334    -0.20800
C298        C  0.05546574  0.18555251  0.40022051    -0.08800
C299        C  0.02325924  0.18578926  0.38125832     0.30000
C300        C  0.99294283  0.18240735  0.39623587    -0.20800
C301        C  0.99417068  0.17937732  0.43028076    -0.08800
C302        C  0.02638520  0.17896299  0.44918216     0.30100
F303        F  0.02882893  0.17521155  0.48214747    -0.19300
H304        H  0.08102730  0.18196556  0.44939323     0.18400
H305        H  0.96846254  0.18242806  0.38118516     0.18400
F306        F  0.02093591  0.18993958  0.34832977    -0.19300
C307        C  0.13535436  0.16496806  0.21152345    -0.20800
C308        C  0.15277732  0.12172231  0.20920551    -0.08800
C309        C  0.16868662  0.10108034  0.23805797     0.30000
C310        C  0.16598129  0.12236173  0.26825145    -0.20800
C311        C  0.14855143  0.16531370  0.27031038    -0.08800
C312        C  0.13369455  0.18694459  0.24166305     0.30100
F313        F  0.11656980  0.22848803  0.24285680    -0.19300
H314        H  0.12244342  0.18168095  0.19005941     0.18400
H315        H  0.17820503  0.10568029  0.29010963     0.18400
F316        F  0.18780924  0.06123618  0.23725934    -0.19300
C317        C  0.40026045  0.35998101  0.76907869    -0.20800
C318        C  0.41791250  0.31673398  0.77093524    -0.08800
C319        C  0.42791967  0.29675102  0.74218111     0.30000
C320        C  0.42015723  0.31962425  0.71227626    -0.20800
C321        C  0.40180584  0.36250717  0.71021055    -0.08800
C322        C  0.39198232  0.38248871  0.73916474     0.30100
F323        F  0.37292174  0.42253520  0.73863341    -0.19300
H324        H  0.39188518  0.37589811  0.79079701     0.18400
H325        H  0.42850268  0.30355099  0.69063900     0.18400
F326        F  0.44510678  0.25508702  0.74284627    -0.18700
C327        C  0.18097309  0.21494393  0.06404816    -0.20800
C328        C  0.16874097  0.21713414  0.03095935    -0.08800
C329        C  0.14934802  0.17958313  0.01678258     0.30000
C330        C  0.14202101  0.14090957  0.03552729    -0.20800
C331        C  0.15336505  0.13841888  0.06910448    -0.08800
C332        C  0.17487683  0.17523999  0.08253970     0.30100
F333        F  0.19346418  0.17107089  0.11205606    -0.19300
H334        H  0.19758467  0.24238457  0.07497384     0.18400
H335        H  0.12963833  0.11132922  0.02282222     0.18400
F336        F  0.13831216  0.17946744  0.98443428    -0.19300
C337        C  0.06733996  0.33460714  0.94043067    -0.20800
C338        C  0.09595171  0.32339223  0.92391562    -0.08800
C339        C  0.09043485  0.29999221  0.89362074     0.30000
C340        C  0.05737753  0.28621862  0.88106976    -0.20800
C341        C  0.02894427  0.29593979  0.89803697    -0.08800
C342        C  0.03409535  0.32114140  0.92764150     0.30100
F343        F  0.00731169  0.33085176  0.94500042    -0.19300
H344        H  0.07083031  0.35213347  0.96390043     0.18400
H345        H  0.05407249  0.26745924  0.85804839     0.18400
F346        F  0.11711040  0.28901175  0.87642990    -0.19300
C347        C  0.31092713  0.28750573  0.87861576    -0.20800
C348        C  0.34141913  0.27742038  0.89863584    -0.08800
C349        C  0.34038282  0.27257372  0.93238956     0.30000
C350        C  0.30939680  0.27809122  0.94582185    -0.20800
C351        C  0.27900951  0.28929138  0.92601294    -0.08800
C352        C  0.27995180  0.29396385  0.89217076     0.30100
F353        F  0.25109844  0.30482606  0.87221699    -0.19300
H354        H  0.31118688  0.29104862  0.85250815     0.18400
H355        H  0.30936808  0.27457169  0.97195622     0.18400
F356        F  0.36917720  0.26165915  0.95240547    -0.19300
C357        C  0.35680397  0.88260081  0.79167199    -0.20800
C358        C  0.34508996  0.86130650  0.81909820    -0.08800
C359        C  0.32499900  0.82035798  0.81463256     0.30000
C360        C  0.31799719  0.80046557  0.78358012    -0.20800
C361        C  0.33026431  0.82143839  0.75637960    -0.08800
C362        C  0.34932502  0.86319505  0.76062051     0.30100
F363        F  0.36194721  0.88436374  0.73500622    -0.19300
H364        H  0.37265246  0.91373724  0.79433981     0.18400
H365        H  0.30289871  0.76860276  0.78079178     0.18400
F366        F  0.31162300  0.79992926  0.84006992    -0.19300
C367        C  0.27632187  0.01367682  0.98952159    -0.20800
C368        C  0.30332923  0.98359400  0.00132799    -0.08800
C369        C  0.30521235  0.96810527  0.03389077     0.30000
C370        C  0.28002814  0.98160707  0.05379738    -0.20800
C371        C  0.25258527  0.01091800  0.04177551    -0.08800
C372        C  0.25109978  0.02707036  0.00933289     0.30100
F373        F  0.22435832  0.05379996  0.99606452    -0.19300
H374        H  0.27406795  0.02550979  0.96446788     0.18400
H375        H  0.28199079  0.96923101  0.07871339     0.18400
F376        F  0.33168110  0.94051395  0.04667332    -0.19300
C377        C  0.49380543  0.95393000  0.02405799    -0.20800
C378        C  0.49388850  0.96161272  0.99046343    -0.08800
C379        C  0.52033108  0.98882934  0.97951613     0.30000
C380        C  0.04560535  0.00875419  0.00174982    -0.20800
C381        C  0.04552939  0.00116774  0.03526138    -0.08800
C382        C  0.01951691  0.97334311  0.04631530     0.30100
F383        F  0.01872052  0.96566953  0.07866152    -0.19300
H384        H  0.47345058  0.93379812  0.03309735     0.18400
H385        H  0.06599973  0.02890082  0.99275668     0.18400
F386        F  0.52214324  0.99526577  0.94717041    -0.19300
C387        C  0.40084582  0.02837901  0.86907514    -0.20800
C388        C  0.39265044  0.02040516  0.90114488    -0.08800
C389        C  0.39779738  0.05805678  0.92361684     0.30000
C390        C  0.40784311  0.10212771  0.91378069    -0.20800
C391        C  0.41430396  0.11037952  0.88157411    -0.08800
C392        C  0.41063842  0.07305821  0.85910005     0.30100
F393        F  0.41791452  0.07907126  0.82795702    -0.19300
H394        H  0.40181880  0.99983338  0.85197834     0.18400
H395        H  0.41125686  0.12985249  0.93191006     0.18400
F396        F  0.39654166  0.05159930  0.95600931    -0.19300
C397        C  0.10258229  0.68809837  0.28292327    -0.20800
C398        C  0.11520374  0.66211894  0.25778103    -0.08800
C399        C  0.12699431  0.61584965  0.26431961     0.30000
C400        C  0.12537066  0.59594265  0.29519371    -0.20800
C401        C  0.11166581  0.62146185  0.32018039    -0.08800
C402        C  0.10049148  0.66816879  0.31354984     0.30100
F403        F  0.08557434  0.69413452  0.33587269    -0.19300
H404        H  0.09315320  0.72364098  0.27858888     0.18400
H405        H  0.13453147  0.56030461  0.29929398     0.18400
F406        F  0.13958728  0.58943293  0.24079116    -0.19300
C407        C  0.16212188  0.91438103  0.11179315    -0.20800
C408        C  0.15040717  0.95360094  0.12855872    -0.08800
C409        C  0.12790603  0.94455318  0.15257930     0.30000
C410        C  0.12088952  0.89841279  0.16166581    -0.20800
C411        C  0.13368990  0.86001351  0.14533761    -0.08800
C412        C  0.15441843  0.86842921  0.12028733     0.30100
F413        F  0.16667126  0.83212163  0.10334961    -0.19300
H414        H  0.17499371  0.91856658  0.09026479     0.18400
H415        H  0.10353570  0.89271242  0.18002372     0.18400
F416        F  0.10964634  0.97971700  0.16496590    -0.19300
C417        C  0.25372319  0.48088049  0.97977286    -0.20800
C418        C  0.24977363  0.44489602  0.00230753    -0.08800
C419        C  0.27065089  0.44568222  0.03239228     0.30000
C420        C  0.29412632  0.48229210  0.03988184    -0.20800
C421        C  0.29775059  0.51861761  0.01749278    -0.08800
C422        C  0.27742530  0.51720299  0.98712076     0.30100
F423        F  0.27999957  0.55124957  0.96456363    -0.19300
H424        H  0.23858319  0.48076805  0.95618431     0.18400
H425        H  0.30921839  0.48248809  0.06349339     0.18400
F426        F  0.26863699  0.41096719  0.05458694    -0.19300
C427        C  0.33841841  0.77545223  0.97055930    -0.20800
C428        C  0.36567942  0.74796785  0.98484698    -0.08800
C429        C  0.39961770  0.76121855  0.98122874     0.30000
C430        C  0.40604351  0.80377312  0.96591367    -0.20800
C431        C  0.37868644  0.83356783  0.95391726    -0.08800
C432        C  0.34473936  0.81688302  0.95432564     0.30100
F433        F  0.31739387  0.84173879  0.94014731    -0.19300
H434        H  0.31206902  0.76512705  0.97241960     0.18400
H435        H  0.43239161  0.81305734  0.96364605     0.18400
F436        F  0.42654391  0.73450849  0.99418160    -0.19300
C437        C  0.45018705  0.68915591  0.12485799    -0.20800
C438        C  0.44531145  0.65931619  0.09749741    -0.08800
C439        C  0.47458223  0.64179369  0.08416084     0.30000
C440        C  0.50775479  0.65390963  0.09801602    -0.20800
C441        C  0.51254220  0.68417558  0.12514076    -0.08800
C442        C  0.48331725  0.70149867  0.13855173     0.30100
F443        F  0.48668957  0.72999331  0.16516274    -0.19300
H444        H  0.42822677  0.70338307  0.13558264     0.18400
H445        H  0.52977279  0.64026418  0.08709093     0.18400
F446        F  0.47125649  0.61416439  0.05711667    -0.19300
C447        C  0.26345661  0.67677852  0.12998622    -0.20800
C448        C  0.26162788  0.66881580  0.09626050    -0.08800
C449        C  0.22913454  0.66640548  0.07797684     0.30000
C450        C  0.19918409  0.67285013  0.09312523    -0.20800
C451        C  0.20093842  0.68224376  0.12668821    -0.08800
C452        C  0.23342575  0.68385500  0.14510898     0.30100
F453        F  0.23624389  0.69243226  0.17766411    -0.19300
H454        H  0.28819040  0.67831542  0.14455783     0.18400
H455        H  0.17455155  0.67137794  0.07837492     0.18400
F456        F  0.22621183  0.65701852  0.04550070    -0.19300
In457      In  0.84728644  0.64202668  0.04874250     1.36900
C458        C  0.85833308  0.70880309  0.00620513     0.78100
O459        O  0.79399482  0.66928074  0.05014142    -0.60300
O460        O  0.82128562  0.64705499  0.09488142    -0.51200
C461        C  0.81964444  0.56008808  0.02730623     0.70800
O462        O  0.82192153  0.59516475  0.00910755    -0.46100
C463        C  0.90986992  0.64982289  0.08182336     0.75500
O464        O  0.87297320  0.66915782  0.00599291    -0.58000
O465        O  0.88390056  0.67237197  0.08923868    -0.48000
O466        O  0.83721571  0.71322056  0.02702817    -0.54400
C467        C  0.79325836  0.66191679  0.08017075     0.85700
O468        O  0.83549420  0.56495328  0.05541477    -0.56300
O469        O  0.90316650  0.62025469  0.05909542    -0.59600
In470      In  0.61165202  0.72109297  0.16517483     1.36900
C471        C  0.62388112  0.81140403  0.15276591     0.78100
O472        O  0.66895578  0.71142479  0.16943251    -0.60300
O473        O  0.63940328  0.68694635  0.12650713    -0.51200
C474        C  0.61455159  0.68319951  0.22481852     0.70800
O475        O  0.60528192  0.72512126  0.21875373    -0.46100
C476        C  0.54783210  0.69750460  0.13916644     0.75500
O477        O  0.62015767  0.79715977  0.18109117    -0.58000
O478        O  0.57436386  0.67463600  0.13384759    -0.48000
O479        O  0.61926911  0.78026720  0.13101611    -0.54400
C480        C  0.66897422  0.69317146  0.14148446     0.85700
O481        O  0.62257594  0.66077707  0.20030899    -0.56300
O482        O  0.55401506  0.73267229  0.15748774    -0.59600
C483        C  0.88420722  0.88276964  0.94060941     0.30500
C484        C  0.88746405  0.97054080  0.91382460     0.30500
C485        C  0.86278604  0.92126145  0.95513143    -0.05700
C486        C  0.92037840  0.90523586  0.94413160    -0.06400
C487        C  0.87289736  0.88673378  0.90383616    -0.06300
C488        C  0.86349098  0.96552552  0.94112087    -0.05700
C489        C  0.92174174  0.94955873  0.92931635    -0.06400
C490        C  0.87392961  0.93131153  0.89018601    -0.06300
C491        C  0.84067033  0.99327783  0.95624817    -0.31700
N492        N  0.82789208  0.96767967  0.97997068     0.14800
C493        C  0.84123499  0.92360953  0.97932293    -0.31700
H494        H  0.83495024  0.89492341  0.99473555     0.16700
C495        C  0.95040545  0.97222397  0.94356365    -0.30700
N496        N  0.96603994  0.94524520  0.96760240     0.13500
C497        C  0.94718286  0.90548463  0.96928850    -0.30700
C498        C  0.86143187  0.92678366  0.85779080    -0.31000
N499        N  0.85463824  0.88070629  0.85112718     0.14000
H500        H  0.85698332  0.95479950  0.84020606     0.16600
C501        C  0.86151489  0.85599811  0.87923171    -0.31000
H502        H  0.85958006  0.81825912  0.88156040     0.16600
H503        H  0.95089941  0.88067508  0.98916661     0.16600
H504        H  0.83399754  0.02954337  0.95061966     0.16700
H505        H  0.95693451  0.00852506  0.93963653     0.16600
In506      In  0.69433896  0.32576071  0.97196381     1.36900
C507        C  0.67864467  0.25629236  0.01059455     0.78100
O508        O  0.63856012  0.35018471  0.96724986    -0.60300
O509        O  0.65711221  0.31225961  0.92837924    -0.51200
C510        C  0.72635747  0.40481194  0.99299512     0.70800
O511        O  0.72398449  0.36947116  0.01095105    -0.46100
C512        C  0.74747417  0.29917313  0.94146500     0.75500
O513        O  0.68280575  0.29801829  0.02088880    -0.58000
O514        O  0.72187708  0.32055993  0.92715200    -0.48000
O515        O  0.68360143  0.25037365  0.98117959    -0.54400
C516        C  0.63146393  0.32996623  0.93998036     0.85700
O517        O  0.70871169  0.40175877  0.96558264    -0.56300
O518        O  0.74472210  0.28892316  0.97076664    -0.59600
In519      In  0.93211653  0.24938480  0.86015319     1.36900
C520        C  0.92408782  0.15848074  0.87268390     0.78100
O521        O  0.99003308  0.24701590  0.86348108    -0.60300
O522        O  0.96690396  0.29572612  0.89344949    -0.51200
C523        C  0.92435569  0.29250635  0.80274920     0.70800
O524        O  0.93434066  0.25020086  0.80580479    -0.46100
C525        C  0.87387142  0.27008116  0.88425399     0.75500
O526        O  0.92367237  0.17326213  0.84381503    -0.58000
O527        O  0.90294608  0.27470087  0.90044154    -0.48000
O528        O  0.93178860  0.18923340  0.89417052    -0.54400
C529        C  0.99441621  0.27913078  0.88471659     0.85700
O530        O  0.91932783  0.31253096  0.82917233    -0.56300
O531        O  0.87475572  0.25729301  0.85505219    -0.59600
C532        C  0.65349739  0.00332283  0.11467066     0.30500
C533        C  0.65124060  0.09111864  0.08654361     0.30500
C534        C  0.68302736  0.01474507  0.09361920    -0.05700
C535        C  0.62132438  0.01515362  0.09157185    -0.06400
C536        C  0.65550531  0.04563201  0.13848090    -0.06300
C537        C  0.68122720  0.05927873  0.07960914    -0.05700
C538        C  0.61970832  0.05937433  0.07714117    -0.06400
C539        C  0.65352692  0.09012898  0.12407284    -0.06300
C540        C  0.70760157  0.06342615  0.06047758    -0.31700
N541        N  0.72575210  0.02267762  0.06188633     0.14800
C542        C  0.71177996  0.99327091  0.08283503    -0.31700
H543        H  0.72164280  0.95849574  0.08894453     0.16700
C544        C  0.58948108  0.06030909  0.05626023    -0.30700
N545        N  0.57368164  0.01791818  0.05746486     0.13500
C546        C  0.59286493  0.99033428  0.07911449    -0.30700
C547        C  0.65153690  0.12240491  0.14872058    -0.31000
N548        N  0.65430240  0.09961153  0.17777571     0.14000
H549        H  0.64777197  0.15986558  0.14563844     0.16600
C550        C  0.65691178  0.05269245  0.17170119    -0.31000
H551        H  0.65828801  0.02539838  0.18993513     0.16600
H552        H  0.58764805  0.95378342  0.08382958     0.16600
H553        H  0.71275819  0.09379707  0.04609381     0.16700
H554        H  0.57993296  0.08891997  0.04055434     0.16600
In555      In  0.90795684  0.15200828  0.47562111     1.36900
C556        C  0.89528981  0.21839467  0.51859322     0.78100
O557        O  0.96165725  0.17714373  0.47628779    -0.60300
O558        O  0.93379782  0.16256748  0.43018856    -0.51200
C559        C  0.93667266  0.06971135  0.49468715     0.70800
O560        O  0.93079810  0.10185008  0.51454261    -0.46100
C561        C  0.84629025  0.15519610  0.44083348     0.75500
O562        O  0.88006416  0.17936142  0.51717043    -0.58000
O563        O  0.87131093  0.18008686  0.43443064    -0.48000
O564        O  0.91765679  0.22262055  0.49902935    -0.54400
C565        C  0.96223509  0.17358331  0.44587260     0.85700
O566        O  0.92380454  0.07740733  0.46586820    -0.56300
O567        O  0.85358727  0.12623999  0.46373728    -0.59600
In568      In  0.64369416  0.22365155  0.36109178     1.36900
C569        C  0.62925464  0.31306291  0.37417612     0.78100
O570        O  0.58803513  0.20383384  0.35575723    -0.60300
O571        O  0.61668168  0.19511127  0.40193458    -0.51200
C572        C  0.64600860  0.18672910  0.30247339     0.70800
O573        O  0.64594331  0.23066806  0.30720962    -0.46100
C574        C  0.70782705  0.19958811  0.38419416     0.75500
O575        O  0.62029297  0.29449110  0.34681292    -0.58000
O576        O  0.68151684  0.18017655  0.39328789    -0.48000
O577        O  0.64833936  0.28731397  0.39332673    -0.54400
C578        C  0.58760133  0.19403985  0.38543399     0.85700
O579        O  0.64417610  0.16211965  0.32759718    -0.56300
O580        O  0.70119641  0.23235006  0.36380707    -0.59600
C581        C  0.86852962  0.38966712  0.58837938     0.30500
C582        C  0.86564122  0.47713054  0.61613004     0.30500
C583        C  0.89273062  0.42654632  0.57671048    -0.05700
C584        C  0.83337676  0.41511303  0.58209068    -0.06400
C585        C  0.87646453  0.39213135  0.62562679    -0.06300
C586        C  0.89218013  0.47077445  0.59105857    -0.05700
C587        C  0.83207196  0.45956310  0.59715453    -0.06400
C588        C  0.87563932  0.43643779  0.63986652    -0.06300
C589        C  0.91740127  0.49671031  0.57814313    -0.31700
N590        N  0.93161145  0.46987953  0.55564072     0.14800
C591        C  0.91649257  0.42712918  0.55460273    -0.31700
H592        H  0.92224797  0.39853592  0.53863957     0.16700
C593        C  0.80671846  0.48548805  0.57954535    -0.30700
N594        N  0.79282933  0.45975214  0.55400951     0.13500
C595        C  0.80972838  0.41790527  0.55445044    -0.30700
C596        C  0.88639377  0.43064031  0.67262782    -0.31000
N597        N  0.89199290  0.38399182  0.67880011     0.14000
H598        H  0.89086093  0.45857251  0.69039209     0.16600
C599        C  0.88616136  0.36042093  0.65000981    -0.31000
H600        H  0.88855402  0.32279293  0.64688712     0.16600
H601        H  0.80744838  0.39352226  0.53417471     0.16600
H602        H  0.92550108  0.53197172  0.58507862     0.16700
H603        H  0.80079907  0.52213538  0.58355187     0.16600
In604      In  0.55446065  0.82993192  0.55206502     1.36900
C605        C  0.56879847  0.75963298  0.51321550     0.78100
O606        O  0.61050484  0.85100011  0.55802834    -0.60300
O607        O  0.59097557  0.81192120  0.59549994    -0.51200
C608        C  0.52716990  0.91210720  0.53166443     0.70800
O609        O  0.52931691  0.87740546  0.51284315    -0.46100
C610        C  0.49997472  0.80799562  0.58185835     0.75500
O611        O  0.56702230  0.80171596  0.50343727    -0.58000
O612        O  0.52654124  0.82643320  0.59651108    -0.48000
O613        O  0.56157154  0.75387178  0.54195966    -0.54400
C614        C  0.61697995  0.82937457  0.58472943     0.85700
O615        O  0.54258796  0.90639210  0.55985510    -0.56300
O616        O  0.50198973  0.79894452  0.55215361    -0.59600
In617      In  0.81772343  0.75718825  0.66620970     1.36900
C618        C  0.82761610  0.66647680  0.65404126     0.78100
O619        O  0.76004303  0.75232308  0.66327857    -0.60300
O620        O  0.78151945  0.80235850  0.63360745    -0.51200
C621        C  0.82445817  0.79870546  0.72406806     0.70800
O622        O  0.81681218  0.75575322  0.72041851    -0.46100
C623        C  0.87497847  0.77975872  0.64130999     0.75500
O624        O  0.82701521  0.68160237  0.68277220    -0.58000
O625        O  0.84567642  0.78214878  0.62527837    -0.48000
O626        O  0.82003834  0.69674971  0.63229358    -0.54400
C627        C  0.75461578  0.78421734  0.64214990     0.85700
O628        O  0.82767358  0.82037955  0.69794666    -0.56300
O629        O  0.87478503  0.76866707  0.67085936    -0.59600
C630        C  0.59880582  0.50447078  0.41226917     0.30500
C631        C  0.59941579  0.59245867  0.43987555     0.30500
C632        C  0.57166460  0.51415635  0.43578952    -0.05700
C633        C  0.63250115  0.51954907  0.43230813    -0.06400
C634        C  0.59333957  0.54586751  0.38767008    -0.06300
C635        C  0.57200482  0.55866883  0.44928685    -0.05700
C636        C  0.63294837  0.56367390  0.44694212    -0.06400
C637        C  0.59373467  0.59107193  0.40218593    -0.06300
C638        C  0.54740726  0.56029600  0.47064528    -0.31700
N639        N  0.53225181  0.51762322  0.47105051     0.14800
C640        C  0.54679348  0.48905942  0.44964774    -0.31700
H641        H  0.54011516  0.45267598  0.44470187     0.16700
C642        C  0.66376011  0.56661646  0.46691015    -0.30700
N643        N  0.68150929  0.52554104  0.46460457     0.13500
C644        C  0.66304301  0.49760677  0.44266003    -0.30700
C645        C  0.60372568  0.62202573  0.37939704    -0.31000
N646        N  0.60653987  0.59932918  0.35092019     0.14000
H647        H  0.61173406  0.65793752  0.38423114     0.16600
C648        C  0.60263743  0.55267373  0.35643333    -0.31000
H649        H  0.60845331  0.52545075  0.33956703     0.16600
H650        H  0.67069529  0.46257264  0.43601668     0.16600
H651        H  0.54196191  0.58984090  0.48592152     0.16700
H652        H  0.67148425  0.59498328  0.48359198     0.16600
C653        C  0.58043198  0.67903539  0.44180171    -0.20800
C654        C  0.59666993  0.63951014  0.45759292    -0.08800
C655        C  0.60385981  0.64126012  0.49187200     0.30000
C656        C  0.59534179  0.68087571  0.50936954    -0.20800
C657        C  0.57938484  0.71989786  0.49345948    -0.08800
C658        C  0.57259542  0.71918608  0.45939793     0.30100
F659        F  0.55616146  0.75582880  0.44332608    -0.19300
H660        H  0.57134167  0.67829301  0.41620771     0.18400
H661        H  0.60047795  0.68050632  0.53569934     0.18400
F662        F  0.61608342  0.60297102  0.50900367    -0.19300
C663        C  0.68086940  0.83722414  0.58629791    -0.20800
C664        C  0.65221220  0.82209629  0.60115739    -0.08800
C665        C  0.65769470  0.79602222  0.63027703     0.30000
C666        C  0.69104780  0.78446339  0.64359422    -0.20800
C667        C  0.71964515  0.79873427  0.62839536    -0.08800
C668        C  0.71429699  0.82579236  0.59974542     0.30100
F669        F  0.74122985  0.83977131  0.58401883    -0.19300
H670        H  0.67739950  0.85686081  0.56372715     0.18400
H671        H  0.69447264  0.76382581  0.66573645     0.18400
F672        F  0.63086622  0.78053436  0.64556831    -0.19300
C673        C  0.93859088  0.78436353  0.57883510    -0.20800
C674        C  0.96858319  0.79925494  0.59775461    -0.08800
C675        C  0.96759845  0.80761368  0.63132510     0.30000
C676        C  0.93703246  0.80122249  0.64545647    -0.20800
C677        C  0.90694557  0.78732435  0.62629745    -0.08800
C678        C  0.90800012  0.77862866  0.59286547     0.30100
F679        F  0.87968524  0.76341672  0.57386005    -0.19300
H680        H  0.93866934  0.77761713  0.55298396     0.18400
H681        H  0.93676108  0.80769408  0.67132312     0.18400
F682        F  0.99599936  0.82217248  0.65048680    -0.19300
C683        C  0.48242527  0.44968045  0.52791835    -0.20800
C684        C  0.95799548  0.48319989  0.53571134    -0.08800
C685        C  0.95860555  0.52838838  0.52210137     0.30000
C686        C  0.48270884  0.53913774  0.50056317    -0.20800
C687        C  0.50680083  0.50529696  0.49233648    -0.08800
C688        C  0.50665835  0.46051199  0.50661778     0.30100
F689        F  0.53061606  0.42766864  0.50095830    -0.19300
H690        H  0.48287641  0.41493311  0.53860104     0.18400
H691        H  0.98224365  0.57388401  0.48989156     0.18400
F692        F  0.93515263  0.56155922  0.52854400    -0.19300
C693        C  0.76482395  0.52320154  0.51960002    -0.20800
C694        C  0.76629065  0.47584040  0.52960443    -0.08800
C695        C  0.74005412  0.44524349  0.51720889     0.30000
C696        C  0.71262400  0.46186921  0.49585797    -0.20800
C697        C  0.71075875  0.50931429  0.48604864    -0.08800
C698        C  0.73734144  0.53987179  0.49799043     0.30100
F699        F  0.73699115  0.58552183  0.48852638    -0.19300
H700        H  0.78498943  0.54734517  0.52858640     0.18400
H701        H  0.69218152  0.43766785  0.48776575     0.18400
F702        F  0.73995692  0.39979613  0.52711456    -0.19300
C703        C  0.86337732  0.56537497  0.60868448    -0.20800
C704        C  0.86058358  0.52674753  0.62953770    -0.08800
C705        C  0.84398562  0.53469363  0.65797801     0.30000
C706        C  0.83427864  0.58030290  0.66662490    -0.20800
C707        C  0.83835865  0.61836325  0.64594285    -0.08800
C708        C  0.85287291  0.61032793  0.61677012     0.30100
F709        F  0.85652398  0.64589979  0.59555404    -0.19300
H710        H  0.87132984  0.56075973  0.58465390     0.18400
H711        H  0.82197034  0.58549284  0.68866993     0.18400
F712        F  0.83435707  0.49838662  0.67606874    -0.19300
C713        C  0.60069491  0.39102867  0.36039780    -0.20800
C714        C  0.61747508  0.36028298  0.38364648    -0.08800
C715        C  0.62095438  0.37404840  0.41655956     0.30000
C716        C  0.61113656  0.41912629  0.42529958    -0.20800
C717        C  0.59973173  0.45279851  0.40148553    -0.08800
C718        C  0.59125563  0.43667238  0.36928873     0.30100
F719        F  0.57194051  0.46313280  0.34699043    -0.19300
H720        H  0.59500811  0.37982649  0.33528710     0.18400
H721        H  0.61484403  0.42890223  0.45084085     0.18400
F722        F  0.63415212  0.34424433  0.44041392    -0.19300
C723        C  0.49487647  0.96283642  0.48919854    -0.20800
C724        C  0.50592080  0.95423586  0.52217757    -0.08800
C725        C  0.49337096  0.98327416  0.54603243     0.30000
C726        C  0.97027174  0.01994699  0.53694675    -0.20800
C727        C  0.95899256  0.02838693  0.50398197    -0.08800
C728        C  0.47182060  0.99957424  0.48009217     0.30100
F729        F  0.46262517  0.00725423  0.44786871    -0.19300
H730        H  0.50394168  0.94082445  0.47037581     0.18400
H731        H  0.96112700  0.04177762  0.55582074     0.18400
F732        F  0.50235150  0.97521443  0.57824275    -0.19300
C733        C  0.84659738  0.31391625  0.55853230    -0.20800
C734        C  0.87378194  0.34053381  0.57432616    -0.08800
C735        C  0.90738359  0.32126449  0.57618415     0.30000
C736        C  0.91406524  0.28084630  0.55857805    -0.20800
C737        C  0.88725125  0.25693289  0.54049938    -0.08800
C738        C  0.85326427  0.27261448  0.54155547     0.30100
F739        F  0.82673874  0.24968218  0.52451067    -0.19300
H740        H  0.82018364  0.32482607  0.55895521     0.18400
H741        H  0.94035946  0.26854629  0.55866005     0.18400
F742        F  0.93421258  0.34292978  0.59374052    -0.19300
C743        C  0.74883079  0.15428196  0.42333920    -0.20800
C744        C  0.74339502  0.18520341  0.39674885    -0.08800
C745        C  0.77219553  0.20245178  0.38289196     0.30000
C746        C  0.80556210  0.19105249  0.39660815    -0.20800
C747        C  0.81099591  0.16176310  0.42408964    -0.08800
C748        C  0.78218678  0.14256109  0.43688644     0.30100
F749        F  0.78608684  0.11404630  0.46334911    -0.19300
H750        H  0.72717072  0.14002076  0.43427268     0.18400
H751        H  0.82723292  0.20596779  0.38604440     0.18400
F752        F  0.76822978  0.23060556  0.35624170    -0.19300
C753        C  0.55662723  0.18178546  0.43421349    -0.20800
C754        C  0.55546607  0.18555250  0.40022060    -0.08800
C755        C  0.52325967  0.18578904  0.38125845     0.30000
C756        C  0.49294311  0.18240707  0.39623592    -0.20800
C757        C  0.49417099  0.17937729  0.43028090    -0.08800
C758        C  0.52638539  0.17896321  0.44918230     0.30100
F759        F  0.52882911  0.17521193  0.48214761    -0.19300
H760        H  0.58102747  0.18196630  0.44939347     0.18400
H761        H  0.46846335  0.18242732  0.38118550     0.18400
F762        F  0.52093610  0.18993917  0.34832986    -0.19300
C763        C  0.63535436  0.16496826  0.21152345    -0.20800
C764        C  0.65277738  0.12172245  0.20920556    -0.08800
C765        C  0.66868692  0.10108083  0.23805793     0.30000
C766        C  0.66598151  0.12236214  0.26825143    -0.20800
C767        C  0.64855152  0.16531406  0.27031031    -0.08800
C768        C  0.63369452  0.18694478  0.24166308     0.30100
F769        F  0.61656976  0.22848824  0.24285671    -0.19300
H770        H  0.62244346  0.18168081  0.19005956     0.18400
H771        H  0.67820521  0.10568097  0.29010951     0.18400
F772        F  0.68780960  0.06123676  0.23725937    -0.19300
C773        C  0.90026088  0.35998138  0.76907881    -0.20800
C774        C  0.91791270  0.31673426  0.77093538    -0.08800
C775        C  0.92791972  0.29675109  0.74218121     0.30000
C776        C  0.92015735  0.31962427  0.71227644    -0.20800
C777        C  0.90180601  0.36250722  0.71021074    -0.08800
C778        C  0.89198268  0.38248900  0.73916497     0.30100
F779        F  0.87292221  0.42253560  0.73863351    -0.19300
H780        H  0.89188501  0.37589850  0.79079720     0.18400
H781        H  0.92850229  0.30355046  0.69063907     0.18400
F782        F  0.94510663  0.25508704  0.74284635    -0.18700
C783        C  0.68097319  0.21494389  0.06404817    -0.20800
C784        C  0.66874095  0.21713414  0.03095937    -0.08800
C785        C  0.64934793  0.17958343  0.01678270     0.30000
C786        C  0.64202088  0.14090976  0.03552731    -0.20800
C787        C  0.65336506  0.13841895  0.06910449    -0.08800
C788        C  0.67487684  0.17523986  0.08253972     0.30100
F789        F  0.69346442  0.17107068  0.11205601    -0.19300
H790        H  0.69758442  0.24238432  0.07497359     0.18400
H791        H  0.62963828  0.11132994  0.02282231     0.18400
F792        F  0.63831190  0.17946772  0.98443442    -0.19300
C793        C  0.56733994  0.33460719  0.94043060    -0.20800
C794        C  0.59595172  0.32339240  0.92391555    -0.08800
C795        C  0.59043485  0.29999237  0.89362077     0.30000
C796        C  0.55737746  0.28621901  0.88106979    -0.20800
C797        C  0.52894414  0.29594018  0.89803695    -0.08800
C798        C  0.53409528  0.32114168  0.92764143     0.30100
F799        F  0.50731166  0.33085197  0.94500032    -0.19300
H800        H  0.57083026  0.35213371  0.96390032     0.18400
H801        H  0.55407241  0.26746040  0.85804831     0.18400
F802        F  0.61711039  0.28901180  0.87642989    -0.19300
C803        C  0.81092724  0.28750621  0.87861584    -0.20800
C804        C  0.84141920  0.27742053  0.89863586    -0.08800
C805        C  0.84038282  0.27257375  0.93238955     0.30000
C806        C  0.80939681  0.27809127  0.94582190    -0.20800
C807        C  0.77900959  0.28929175  0.92601305    -0.08800
C808        C  0.77995188  0.29396431  0.89217086     0.30100
F809        F  0.75109850  0.30482686  0.87221708    -0.19300
H810        H  0.81118697  0.29104921  0.85250826     0.18400
H811        H  0.80936800  0.27457116  0.97195621     0.18400
F812        F  0.86917710  0.26165885  0.95240540    -0.19300
C813        C  0.85680378  0.88260089  0.79167192    -0.20800
C814        C  0.84509001  0.86130636  0.81909820    -0.08800
C815        C  0.82499916  0.82035772  0.81463253     0.30000
C816        C  0.81799732  0.80046527  0.78358006    -0.20800
C817        C  0.83026434  0.82143821  0.75637954    -0.08800
C818        C  0.84932476  0.86319507  0.76062045     0.30100
F819        F  0.86194679  0.88436392  0.73500619    -0.19300
H820        H  0.87265200  0.91373751  0.79433966     0.18400
H821        H  0.80289937  0.76860205  0.78079197     0.18400
F822        F  0.81162326  0.79992892  0.84006997    -0.19300
C823        C  0.77632194  0.01367678  0.98952172    -0.20800
C824        C  0.80332925  0.98359395  0.00132805    -0.08800
C825        C  0.80521227  0.96810503  0.03389079     0.30000
C826        C  0.78002813  0.98160687  0.05379740    -0.20800
C827        C  0.75258521  0.01091783  0.04177558    -0.08800
C828        C  0.75109979  0.02707032  0.00933297     0.30100
F829        F  0.72435832  0.05379994  0.99606453    -0.19300
H830        H  0.77406800  0.02550934  0.96446795     0.18400
H831        H  0.78199056  0.96922986  0.07871335     0.18400
F832        F  0.83168097  0.94051372  0.04667334    -0.19300
C833        C  0.99380545  0.95393003  0.02405798    -0.20800
C834        C  0.99388843  0.96161270  0.99046346    -0.08800
C835        C  0.02033116  0.98882931  0.97951614     0.30000
C836        C  0.54560524  0.00875417  0.00174992    -0.20800
C837        C  0.54552925  0.00116771  0.03526152    -0.08800
C838        C  0.51951692  0.97334301  0.04631537     0.30100
F839        F  0.51872051  0.96566924  0.07866154    -0.19300
H840        H  0.97345047  0.93379784  0.03309743     0.18400
H841        H  0.56599962  0.02890031  0.99275688     0.18400
F842        F  0.02214326  0.99526575  0.94717043    -0.19300
C843        C  0.90084569  0.02837904  0.86907513    -0.20800
C844        C  0.89265048  0.02040522  0.90114489    -0.08800
C845        C  0.89779727  0.05805688  0.92361682     0.30000
C846        C  0.90784307  0.10212776  0.91378074    -0.20800
C847        C  0.91430391  0.11037946  0.88157413    -0.08800
C848        C  0.91063835  0.07305814  0.85910003     0.30100
F849        F  0.91791450  0.07907132  0.82795704    -0.19300
H850        H  0.90181855  0.99983332  0.85197829     0.18400
H851        H  0.91125690  0.12985244  0.93191012     0.18400
F852        F  0.89654163  0.05159930  0.95600928    -0.19300
C853        C  0.60258262  0.68809836  0.28292329    -0.20800
C854        C  0.61520395  0.66211893  0.25778109    -0.08800
C855        C  0.62699457  0.61584960  0.26431970     0.30000
C856        C  0.62537087  0.59594275  0.29519376    -0.20800
C857        C  0.61166610  0.62146183  0.32018045    -0.08800
C858        C  0.60049178  0.66816889  0.31354987     0.30100
F859        F  0.58557462  0.69413476  0.33587267    -0.19300
H860        H  0.59315355  0.72364094  0.27858880     0.18400
H861        H  0.63453195  0.56030409  0.29929411     0.18400
F862        F  0.63958745  0.58943306  0.24079119    -0.19300
C863        C  0.66212195  0.91438117  0.11179314    -0.20800
C864        C  0.65040722  0.95360106  0.12855867    -0.08800
C865        C  0.62790609  0.94455338  0.15257933     0.30000
C866        C  0.62088958  0.89841305  0.16166585    -0.20800
C867        C  0.63369002  0.86001374  0.14533764    -0.08800
C868        C  0.65441850  0.86842941  0.12028723     0.30100
F869        F  0.66667123  0.83212165  0.10334964    -0.19300
H870        H  0.67499365  0.91856679  0.09026423     0.18400
H871        H  0.60353557  0.89271269  0.18002343     0.18400
F872        F  0.60964645  0.97971711  0.16496609    -0.19300
C873        C  0.75372307  0.48088053  0.97977296    -0.20800
C874        C  0.74977353  0.44489606  0.00230761    -0.08800
C875        C  0.77065083  0.44568231  0.03239243     0.30000
C876        C  0.79412625  0.48229220  0.03988202    -0.20800
C877        C  0.79775062  0.51861755  0.01749293    -0.08800
C878        C  0.77742515  0.51720307  0.98712088     0.30100
F879        F  0.77999949  0.55124973  0.96456381    -0.19300
H880        H  0.73858343  0.48076759  0.95618396     0.18400
H881        H  0.80921878  0.48248792  0.06349354     0.18400
F882        F  0.76863691  0.41096727  0.05458704    -0.19300
C883        C  0.83841849  0.77545210  0.97055925    -0.20800
C884        C  0.86567957  0.74796777  0.98484702    -0.08800
C885        C  0.89961771  0.76121837  0.98122873     0.30000
C886        C  0.90604353  0.80377309  0.96591370    -0.20800
C887        C  0.87868638  0.83356784  0.95391733    -0.08800
C888        C  0.84473947  0.81688298  0.95432560     0.30100
F889        F  0.81739396  0.84173872  0.94014733    -0.19300
H890        H  0.81206937  0.76512672  0.97241928     0.18400
H891        H  0.93239120  0.81305733  0.96364617     0.18400
F892        F  0.92654404  0.73450846  0.99418163    -0.19300
C893        C  0.95018710  0.68915569  0.12485808    -0.20800
C894        C  0.94531147  0.65931599  0.09749749    -0.08800
C895        C  0.97458225  0.64179331  0.08416099     0.30000
C896        C  0.00775477  0.65390937  0.09801618    -0.20800
C897        C  0.01254223  0.68417539  0.12514085    -0.08800
C898        C  0.98331728  0.70149858  0.13855179     0.30100
F899        F  0.98668957  0.72999329  0.16516275    -0.19300
H900        H  0.92822682  0.70338331  0.13558246     0.18400
H901        H  0.02977282  0.64026367  0.08709111     0.18400
F902        F  0.97125646  0.61416393  0.05711683    -0.19300
C903        C  0.76345659  0.67677849  0.12998622    -0.20800
C904        C  0.76162786  0.66881602  0.09626049    -0.08800
C905        C  0.72913450  0.66640550  0.07797684     0.30000
C906        C  0.69918404  0.67285017  0.09312515    -0.20800
C907        C  0.70093838  0.68224386  0.12668811    -0.08800
C908        C  0.73342572  0.68385489  0.14510893     0.30100
F909        F  0.73624381  0.69243196  0.17766409    -0.19300
H910        H  0.78819040  0.67831572  0.14455784     0.18400
H911        H  0.67455150  0.67137793  0.07837474     0.18400
F912        F  0.72621184  0.65701855  0.04550073    -0.19300
loop_ 
_geom_bond_atom_site_label_1 
_geom_bond_atom_site_label_2 
_geom_bond_distance 
_geom_bond_site_symmetry_2 
_ccdc_geom_bond_type 
In1           O3   2.225       .  S
In1           O4   2.256       .  S
In1          O12   2.266       .  S
In1           O6   2.254       .  S
In1           O8   2.262       .  S
In1           O9   2.252       .  S
In1          O10   2.232       .  S
In1          O13   2.263       .  S
C2            O8   1.262       .  A
C2           O10   1.260       .  A
C2          C428   1.471   1_554  S
O3           C11   1.261       .  A
O4           C11   1.265       .  A
C5           O12   1.262       .  A
C5            O6   1.260       .  A
C5          C421   1.490       .  S
C7            O9   1.262       .  A
C7           O13   1.264       .  A
C7          C438   1.490       .  S
C11         C448   1.477       .  S
In14         O16   2.244       .  S
In14         O17   2.239       .  S
In14         O25   2.259       .  S
In14         O19   2.253       .  S
In14         O21   2.274       .  S
In14         O22   2.268       .  S
In14         O23   2.241       .  S
In14         O26   2.264       .  S
C15          O21   1.262       .  A
C15          O23   1.258       .  A
C15         C411   1.479       .  S
O16          C24   1.263       .  A
O17          C24   1.264       .  A
C18          O25   1.260       .  A
C18          O19   1.262       .  A
C18         C398   1.486       .  S
C20          O22   1.260       .  A
C20          O26   1.260       .  A
C20         C897   1.488       .  S
C24         C451   1.480       .  S
C27          C29   1.533       .  S
C27          C31   1.538       .  S
C27          C30   1.548       .  S
C27         C431   1.530       .  S
C28          C32   1.549       .  S
C28          C34   1.537       .  S
C28          C33   1.539       .  S
C28         C388   1.535   1_565  S
C29          C37   1.375       .  A
C29          C32   1.389       .  A
C30          C41   1.393       .  A
C30          C33   1.407       .  A
C31          C45   1.376       .  A
C31          C34   1.392       .  A
C32          C35   1.384       .  A
C33          C39   1.371       .  A
C34          C42   1.378       .  A
C35          N36   1.361       .  A
C35          H48   1.082   1_565  S
N36          C37   1.356       .  A
N36         C368   1.441   1_556  S
C37          H38   1.082       .  S
C39          N40   1.347       .  A
C39          H49   1.082   1_565  S
N40          C41   1.359       .  A
N40         C378   1.440       .  S
C41          H47   1.081       .  S
C42          N43   1.359       .  A
C42          H44   1.080       .  S
N43          C45   1.359       .  A
N43         C358   1.442       .  S
C45          H46   1.082       .  S
In50         O52   2.273       .  S
In50         O53   2.222       .  S
In50         O61   2.259       .  S
In50         O55   2.253   1_556  S
In50         O57   2.261   1_556  S
In50         O58   2.242       .  S
In50         O59   2.229       .  S
In50         O62   2.231       .  S
C51          O57   1.264       .  A
C51          O59   1.260   1_554  A
C51         C328   1.476       .  S
O52          C60   1.266       .  A
O53          C60   1.259       .  A
C54          O61   1.263       .  A
C54          O55   1.261   1_556  A
C54         C418   1.489   1_556  S
C56          O58   1.260       .  A
C56          O62   1.261       .  A
C56         C351   1.473       .  S
C60         C338   1.485       .  S
In63         O65   2.254       .  S
In63         O66   2.253       .  S
In63         O74   2.231       .  S
In63         O68   2.254       .  S
In63         O70   2.280       .  S
In63         O71   2.230       .  S
In63         O72   2.218       .  S
In63         O75   2.240       .  S
C64          O70   1.263       .  A
C64          O72   1.257       .  A
C64         C391   1.480       .  S
O65          C73   1.263       .  A
O66          C73   1.259       .  A
C67          O74   1.261       .  A
C67          O68   1.265       .  A
C67         C318   1.481       .  S
C69          O71   1.262       .  A
C69          O75   1.261       .  A
C69         C348   1.471       .  S
C73         C797   1.483       .  S
C76          C78   1.554       .  S
C76          C80   1.547       .  S
C76          C79   1.530       .  S
C76         C408   1.538   1_545  S
C77          C81   1.528       .  S
C77          C83   1.542       .  S
C77          C82   1.547       .  S
C77         C331   1.535       .  S
C78          C86   1.390   1_545  A
C78          C81   1.392       .  A
C79          C90   1.372   1_545  A
C79          C82   1.391       .  A
C80          C94   1.380       .  A
C80          C83   1.398       .  A
C81          C84   1.370       .  A
C82          C88   1.385       .  A
C83          C91   1.375       .  A
C84          N85   1.353       .  A
C84          H97   1.082       .  S
N85          C86   1.363   1_545  A
N85         C371   1.443       .  S
C86          H87   1.080       .  S
C88          N89   1.361       .  A
C88          H98   1.081       .  S
N89          C90   1.352   1_545  A
N89         C381   1.436       .  S
C90          H96   1.083       .  S
C91          N92   1.359       .  A
C91          H93   1.080       .  S
N92          C94   1.362       .  A
N92         C308   1.446       .  S
C94          H95   1.080       .  S
In99        O101   2.219       .  S
In99        O102   2.245       .  S
In99        O110   2.253       .  S
In99        O104   2.259       .  S
In99        O106   2.262       .  S
In99        O107   2.247       .  S
In99        O108   2.241       .  S
In99        O111   2.255       .  S
C100        O106   1.261       .  A
C100        O108   1.259       .  A
C100        C281   1.472       .  S
O101        C109   1.261       .  A
O102        C109   1.265       .  A
C103        O110   1.259       .  A
C103        O104   1.261       .  A
C103        C271   1.486       .  S
C105        O107   1.262       .  A
C105        O111   1.264       .  A
C105        C291   1.486       .  S
C109        C757   1.475       .  S
In112       O114   2.239       .  S
In112       O115   2.240       .  S
In112       O123   2.226       .  S
In112       O117   2.244       .  S
In112       O119   2.261       .  S
In112       O120   2.246       .  S
In112       O121   2.239       .  S
In112       O124   2.254       .  S
C113        O119   1.260       .  A
C113        O121   1.260       .  A
C113        C258   1.481       .  S
O114        C122   1.259       .  A
O115        C122   1.261       .  A
C116        O123   1.262       .  A
C116        O117   1.264       .  A
C116        C311   1.471       .  S
C118        O120   1.263       .  A
C118        O124   1.264       .  A
C118        C288   1.486       .  S
C122        C298   1.476       .  S
C125        C127   1.530       .  S
C125        C129   1.536       .  S
C125        C128   1.547       .  S
C125        C278   1.532       .  S
C126        C130   1.552       .  S
C126        C132   1.540       .  S
C126        C131   1.539       .  S
C126        C248   1.533       .  S
C127        C135   1.371       .  A
C127        C130   1.389       .  A
C128        C139   1.391       .  A
C128        C131   1.409       .  A
C129        C143   1.374       .  A
C129        C132   1.390       .  A
C130        C133   1.388       .  A
C131        C137   1.376       .  A
C132        C140   1.382       .  A
C133        N134   1.361       .  A
C133        H146   1.081       .  S
N134        C135   1.353       .  A
N134        C228   1.440       .  S
C135        H136   1.082       .  S
C137        N138   1.347       .  A
C137        H147   1.082       .  S
N138        C139   1.357       .  A
N138        C238   1.439       .  S
C139        H145   1.081       .  S
C140        N141   1.363       .  A
C140        H142   1.081       .  S
N141        C143   1.360       .  A
N141        C321   1.448       .  S
C143        H144   1.082       .  S
In148       O150   2.263       .  S
In148       O151   2.227       .  S
In148       O159   2.249       .  S
In148       O153   2.250       .  S
In148       O155   2.260       .  S
In148       O156   2.236       .  S
In148       O157   2.222       .  S
In148       O160   2.238       .  S
C149        O155   1.263       .  A
C149        O157   1.260       .  A
C149        C201   1.474       .  S
O150        C158   1.264       .  A
O151        C158   1.258       .  A
C152        O159   1.262       .  A
C152        O153   1.261       .  A
C152        C268   1.483       .  S
C154        O156   1.260   1_655  A
C154        O160   1.262   1_655  A
C154        C674   1.475       .  S
C158        C208   1.482       .  S
In161       O163   2.250       .  S
In161       O164   2.246       .  S
In161       O172   2.230       .  S
In161       O166   2.241       .  S
In161       O168   2.273       .  S
In161       O169   2.229       .  S
In161       O170   2.219       .  S
In161       O173   2.244       .  S
C162        O168   1.262       .  A
C162        O170   1.257       .  A
C162        C251   1.476       .  S
O163        C171   1.261       .  A
O164        C171   1.259       .  A
C165        O172   1.262       .  A
C165        O166   1.264       .  A
C165        C361   1.475       .  S
C167        O169   1.261       .  A
C167        O173   1.261       .  A
C167        C221   1.471       .  S
C171        C211   1.480       .  S
C174        C176   1.536       .  S
C174        C178   1.556       .  S
C174        C177   1.540       .  S
C174        C261   1.535       .  S
C175        C179   1.526       .  S
C175        C181   1.547       .  S
C175        C180   1.543       .  S
C175        C198   1.531       .  S
C176        C184   1.383       .  A
C176        C179   1.380       .  A
C177        C188   1.371       .  A
C177        C180   1.390       .  A
C178        C192   1.391       .  A
C178        C181   1.415       .  A
C179        C182   1.373       .  A
C180        C186   1.387       .  A
C181        C189   1.379       .  A
C182        N183   1.354       .  A
C182        H195   1.082       .  S
N183        C184   1.364       .  A
N183        C231   1.442       .  S
C184        H185   1.082       .  S
C186        N187   1.363       .  A
C186        H196   1.081       .  S
N187        C188   1.353       .  A
N187        C241   1.443       .  S
C188        H194   1.081       .  S
C189        N190   1.353       .  A
C189        H191   1.081       .  S
N190        C192   1.359       .  A
N190        C401   1.452       .  S
C192        H193   1.078       .  S
C197        C198   1.414       .  A
C197        C202   1.401       .  A
C197        H204   1.077       .  S
C198        C199   1.413       .  A
C199        C200   1.394       .  A
C199        F206   1.356       .  S
C200        C201   1.400       .  A
C200        H205   1.083       .  S
C201        C202   1.402       .  A
C202        F203   1.358       .  S
C207        C208   1.404       .  A
C207        C212   1.400       .  A
C207        H214   1.083       .  S
C208        C209   1.410       .  A
C209        C210   1.397       .  A
C209        F216   1.358       .  S
C210        C211   1.402       .  A
C210        H215   1.083       .  S
C211        C212   1.409       .  A
C212        F213   1.357       .  S
C217        C218   1.403       .  A
C217        C222   1.395       .  A
C217        H224   1.083       .  S
C218        C610   1.475       .  S
C218        C219   1.409       .  A
C219        C220   1.398       .  A
C219        F226   1.357       .  S
C220        C221   1.403       .  A
C220        H225   1.083       .  S
C221        C222   1.405       .  A
C222        F223   1.358       .  S
C227        C232   1.397   1_655  A
C227        C684   1.406       .  A
C227        H234   1.083       .  S
C228        C229   1.406       .  A
C228        C683   1.406       .  A
C229        C686   1.399       .  A
C229        F236   1.357       .  S
C230        C231   1.409   1_655  A
C230        C685   1.399       .  A
C230        H691   1.082       .  S
C231        C232   1.405       .  A
C232        F233   1.356       .  S
H235        C686   1.082       .  S
C237        C238   1.409       .  A
C237        C242   1.402       .  A
C237        H244   1.082       .  S
C238        C239   1.402       .  A
C239        C240   1.394       .  A
C239        F246   1.357       .  S
C240        C241   1.409       .  A
C240        H245   1.082       .  S
C241        C242   1.405       .  A
C242        F243   1.356       .  S
C247        C248   1.410       .  A
C247        C252   1.391       .  A
C247        H254   1.078       .  S
C248        C249   1.418       .  A
C249        C250   1.405       .  A
C249        F256   1.355       .  S
C250        C251   1.401       .  A
C250        H255   1.083       .  S
C251        C252   1.402       .  A
C252        F253   1.358       .  S
C257        C258   1.407       .  A
C257        C262   1.405       .  A
C257        H264   1.083       .  S
C258        C259   1.404       .  A
C259        C260   1.393       .  A
C259        F266   1.358       .  S
C260        C261   1.410       .  A
C260        H265   1.083       .  S
C261        C262   1.409       .  A
C262        F263   1.353       .  S
C267        C268   1.404   1_655  A
C267        C272   1.401       .  A
C267        H274   1.083   1_655  S
C268        C269   1.409   1_455  A
C269        C726   1.401   1_565  A
C269        F276   1.357   1_655  S
C270        C271   1.405       .  A
C270        C725   1.401   1_545  A
C270        H275   1.083       .  S
C271        C728   1.411   1_545  A
C272        C727   1.411   1_565  A
C272        F273   1.357   1_565  S
C277        C278   1.408       .  A
C277        C282   1.402       .  A
C277        H284   1.078       .  S
C278        C279   1.415       .  A
C279        C280   1.396       .  A
C279        F286   1.358       .  S
C280        C281   1.398       .  A
C280        H285   1.084       .  S
C281        C282   1.404       .  A
C282        F283   1.357       .  S
C287        C288   1.406       .  A
C287        C292   1.401       .  A
C287        H294   1.083       .  S
C288        C289   1.408       .  A
C289        C290   1.401       .  A
C289        F296   1.357       .  S
C290        C291   1.406       .  A
C290        H295   1.083       .  S
C291        C292   1.408       .  A
C292        F293   1.357       .  S
C297        C298   1.403       .  A
C297        C302   1.395       .  A
C297        H304   1.083       .  S
C298        C299   1.409       .  A
C299        C300   1.399   1_455  A
C299        F306   1.357       .  S
C300        C301   1.403       .  A
C300        H305   1.083       .  S
C301        C565   1.475       .  S
C301        C302   1.408   1_655  A
C302        F303   1.358       .  S
C307        C308   1.410       .  A
C307        C312   1.397       .  A
C307        H314   1.081       .  S
C308        C309   1.411       .  A
C309        C310   1.397       .  A
C309        F316   1.356       .  S
C310        C311   1.402       .  A
C310        H315   1.084       .  S
C311        C312   1.402       .  A
C312        F313   1.358       .  S
C317        C318   1.405       .  A
C317        C322   1.398       .  A
C317        H324   1.083       .  S
C318        C319   1.406       .  A
C319        C320   1.400       .  A
C319        F326   1.357       .  S
C320        C321   1.409       .  A
C320        H325   1.082       .  S
C321        C322   1.410       .  A
C322        F323   1.356       .  S
C327        C328   1.398       .  A
C327        C332   1.401       .  A
C327        H334   1.083       .  S
C328        C329   1.402       .  A
C329        C330   1.396       .  A
C329        F336   1.358   1_554  S
C330        C331   1.410       .  A
C330        H335   1.079       .  S
C331        C332   1.420       .  A
C332        F333   1.354       .  S
C337        C338   1.406       .  A
C337        C342   1.404       .  A
C337        H344   1.083       .  S
C338        C339   1.410       .  A
C339        C340   1.397       .  A
C339        F346   1.357       .  S
C340        C341   1.402       .  A
C340        H345   1.083       .  S
C341        C529   1.483   1_455  S
C341        C342   1.410       .  A
C342        F343   1.357       .  S
C347        C348   1.404       .  A
C347        C352   1.399       .  A
C347        H354   1.083       .  S
C348        C349   1.405       .  A
C349        C350   1.393       .  A
C349        F356   1.357       .  S
C350        C351   1.403       .  A
C350        H355   1.083       .  S
C351        C352   1.408       .  A
C352        F353   1.358       .  S
C357        C358   1.406       .  A
C357        C362   1.395       .  A
C357        H364   1.082       .  S
C358        C359   1.409       .  A
C359        C360   1.399       .  A
C359        F366   1.356       .  S
C360        C361   1.404       .  A
C360        H365   1.083       .  S
C361        C362   1.406       .  A
C362        F363   1.358       .  S
C367        C368   1.402   1_546  A
C367        C372   1.397   1_556  A
C367        H374   1.083       .  S
C368        C369   1.410       .  A
C369        C370   1.400       .  A
C369        F376   1.357       .  S
C370        C371   1.403   1_565  A
C370        H375   1.083       .  S
C371        C372   1.412       .  A
C372        F373   1.357   1_554  S
C377        C378   1.404   1_554  A
C377        C838   1.401       .  A
C377        H384   1.082       .  S
C378        C379   1.409       .  A
C379        C836   1.395   1_566  A
C379        F386   1.357       .  S
C380        C381   1.400       .  A
C380        C835   1.395   1_544  A
C380        H385   1.083   1_554  S
C381        C382   1.407   1_545  A
C382        C833   1.401   1_455  A
C382        F383   1.357       .  S
C387        C388   1.414       .  A
C387        C392   1.405       .  A
C387        H394   1.076   1_545  S
C388        C389   1.414       .  A
C389        C390   1.390       .  A
C389        F396   1.356       .  S
C390        C391   1.400       .  A
C390        H395   1.083       .  S
C391        C392   1.404       .  A
C392        F393   1.357       .  S
C397        C398   1.402       .  A
C397        C402   1.397       .  A
C397        H404   1.083       .  S
C398        C399   1.409       .  A
C399        C400   1.404       .  A
C399        F406   1.357       .  S
C400        C401   1.409       .  A
C400        H405   1.081       .  S
C401        C402   1.414       .  A
C402        F403   1.356       .  S
C407        C408   1.410       .  A
C407        C412   1.397       .  A
C407        H414   1.074       .  S
C408        C409   1.420       .  A
C409        C410   1.403       .  A
C409        F416   1.355       .  S
C410        C411   1.399       .  A
C410        H415   1.083       .  S
C411        C412   1.403       .  A
C412        F413   1.358       .  S
C417        C418   1.405   1_556  A
C417        C422   1.402       .  A
C417        H424   1.083       .  S
C418        C419   1.410       .  A
C419        C420   1.403       .  A
C419        F426   1.357       .  S
C420        C421   1.406       .  A
C420        H425   1.083       .  S
C421        C422   1.410   1_554  A
C422        F423   1.357       .  S
C427        C428   1.397       .  A
C427        C432   1.394       .  A
C427        H434   1.084       .  S
C428        C429   1.405       .  A
C429        C430   1.404       .  A
C429        F436   1.357       .  S
C430        C431   1.409       .  A
C430        H435   1.079       .  S
C431        C432   1.414       .  A
C432        F433   1.358       .  S
C437        C438   1.407       .  A
C437        C442   1.402       .  A
C437        H444   1.083       .  S
C438        C439   1.410       .  A
C439        C440   1.404       .  A
C439        F446   1.357       .  S
C440        C441   1.406       .  A
C440        H445   1.083       .  S
C441        C476   1.488       .  S
C441        C442   1.408       .  A
C442        F443   1.357       .  S
C447        C448   1.403       .  A
C447        C452   1.401       .  A
C447        H454   1.083       .  S
C448        C449   1.408       .  A
C449        C450   1.396       .  A
C449        F456   1.358       .  S
C450        C451   1.404       .  A
C450        H455   1.083       .  S
C451        C452   1.409       .  A
C452        F453   1.357       .  S
In457       O459   2.225       .  S
In457       O460   2.256       .  S
In457       O468   2.266       .  S
In457       O462   2.254       .  S
In457       O464   2.262       .  S
In457       O465   2.252       .  S
In457       O466   2.232       .  S
In457       O469   2.263       .  S
C458        O464   1.262       .  A
C458        O466   1.260       .  A
C458        C884   1.471   1_554  S
O459        C467   1.261       .  A
O460        C467   1.265       .  A
C461        O468   1.262       .  A
C461        O462   1.260       .  A
C461        C877   1.490       .  S
C463        O465   1.262       .  A
C463        O469   1.264       .  A
C463        C894   1.490       .  S
C467        C904   1.477       .  S
In470       O472   2.244       .  S
In470       O473   2.239       .  S
In470       O481   2.259       .  S
In470       O475   2.253       .  S
In470       O477   2.274       .  S
In470       O478   2.268       .  S
In470       O479   2.241       .  S
In470       O482   2.264       .  S
C471        O477   1.262       .  A
C471        O479   1.258       .  A
C471        C867   1.479       .  S
O472        C480   1.263       .  A
O473        C480   1.264       .  A
C474        O481   1.260       .  A
C474        O475   1.262       .  A
C474        C854   1.486       .  S
C476        O478   1.260       .  A
C476        O482   1.260       .  A
C480        C907   1.480       .  S
C483        C485   1.533       .  S
C483        C487   1.538       .  S
C483        C486   1.548       .  S
C483        C887   1.530       .  S
C484        C488   1.549       .  S
C484        C490   1.537       .  S
C484        C489   1.539       .  S
C484        C844   1.535   1_565  S
C485        C493   1.375       .  A
C485        C488   1.389       .  A
C486        C497   1.393       .  A
C486        C489   1.407       .  A
C487        C501   1.376       .  A
C487        C490   1.392       .  A
C488        C491   1.384       .  A
C489        C495   1.371       .  A
C490        C498   1.378       .  A
C491        N492   1.361       .  A
C491        H504   1.082   1_565  S
N492        C493   1.356       .  A
N492        C824   1.441   1_556  S
C493        H494   1.082       .  S
C495        N496   1.347       .  A
C495        H505   1.082   1_565  S
N496        C497   1.359       .  A
N496        C834   1.440       .  S
C497        H503   1.081       .  S
C498        N499   1.359       .  A
C498        H500   1.080       .  S
N499        C501   1.359       .  A
N499        C814   1.442       .  S
C501        H502   1.082       .  S
In506       O508   2.273       .  S
In506       O509   2.222       .  S
In506       O517   2.259       .  S
In506       O511   2.253   1_556  S
In506       O513   2.261   1_556  S
In506       O514   2.242       .  S
In506       O515   2.229       .  S
In506       O518   2.231       .  S
C507        O513   1.264       .  A
C507        O515   1.260   1_554  A
C507        C784   1.476       .  S
O508        C516   1.266       .  A
O509        C516   1.259       .  A
C510        O517   1.263       .  A
C510        O511   1.261   1_556  A
C510        C874   1.489   1_556  S
C512        O514   1.260       .  A
C512        O518   1.261       .  A
C512        C807   1.473       .  S
C516        C794   1.485       .  S
In519       O521   2.254       .  S
In519       O522   2.253       .  S
In519       O530   2.231       .  S
In519       O524   2.254       .  S
In519       O526   2.280       .  S
In519       O527   2.230       .  S
In519       O528   2.218       .  S
In519       O531   2.240       .  S
C520        O526   1.263       .  A
C520        O528   1.257       .  A
C520        C847   1.480       .  S
O521        C529   1.263       .  A
O522        C529   1.259       .  A
C523        O530   1.261       .  A
C523        O524   1.265       .  A
C523        C774   1.481       .  S
C525        O527   1.262       .  A
C525        O531   1.261       .  A
C525        C804   1.471       .  S
C532        C534   1.554       .  S
C532        C536   1.547       .  S
C532        C535   1.530       .  S
C532        C864   1.538   1_545  S
C533        C537   1.528       .  S
C533        C539   1.542       .  S
C533        C538   1.547       .  S
C533        C787   1.535       .  S
C534        C542   1.390   1_545  A
C534        C537   1.392       .  A
C535        C546   1.372   1_545  A
C535        C538   1.391       .  A
C536        C550   1.380       .  A
C536        C539   1.398       .  A
C537        C540   1.370       .  A
C538        C544   1.385       .  A
C539        C547   1.375       .  A
C540        N541   1.353       .  A
C540        H553   1.082       .  S
N541        C542   1.363   1_545  A
N541        C827   1.443       .  S
C542        H543   1.080       .  S
C544        N545   1.361       .  A
C544        H554   1.081       .  S
N545        C546   1.352   1_545  A
N545        C837   1.436       .  S
C546        H552   1.083       .  S
C547        N548   1.359       .  A
C547        H549   1.080       .  S
N548        C550   1.362       .  A
N548        C764   1.446       .  S
C550        H551   1.080       .  S
In555       O557   2.219       .  S
In555       O558   2.245       .  S
In555       O566   2.253       .  S
In555       O560   2.259       .  S
In555       O562   2.262       .  S
In555       O563   2.247       .  S
In555       O564   2.241       .  S
In555       O567   2.255       .  S
C556        O562   1.261       .  A
C556        O564   1.259       .  A
C556        C737   1.472       .  S
O557        C565   1.261       .  A
O558        C565   1.265       .  A
C559        O566   1.259       .  A
C559        O560   1.261       .  A
C559        C727   1.486       .  S
C561        O563   1.262       .  A
C561        O567   1.264       .  A
C561        C747   1.486       .  S
In568       O570   2.239       .  S
In568       O571   2.240       .  S
In568       O579   2.226       .  S
In568       O573   2.244       .  S
In568       O575   2.261       .  S
In568       O576   2.246       .  S
In568       O577   2.239       .  S
In568       O580   2.254       .  S
C569        O575   1.260       .  A
C569        O577   1.260       .  A
C569        C714   1.481       .  S
O570        C578   1.259       .  A
O571        C578   1.261       .  A
C572        O579   1.262       .  A
C572        O573   1.264       .  A
C572        C767   1.471       .  S
C574        O576   1.263       .  A
C574        O580   1.264       .  A
C574        C744   1.486       .  S
C578        C754   1.476       .  S
C581        C583   1.530       .  S
C581        C585   1.536       .  S
C581        C584   1.547       .  S
C581        C734   1.532       .  S
C582        C586   1.552       .  S
C582        C588   1.540       .  S
C582        C587   1.539       .  S
C582        C704   1.533       .  S
C583        C591   1.371       .  A
C583        C586   1.389       .  A
C584        C595   1.391       .  A
C584        C587   1.409       .  A
C585        C599   1.375       .  A
C585        C588   1.390       .  A
C586        C589   1.388       .  A
C587        C593   1.376       .  A
C588        C596   1.382       .  A
C589        N590   1.361       .  A
C589        H602   1.081       .  S
N590        C591   1.353       .  A
N590        C684   1.440       .  S
C591        H592   1.082       .  S
C593        N594   1.347       .  A
C593        H603   1.082       .  S
N594        C595   1.357       .  A
N594        C694   1.439       .  S
C595        H601   1.081       .  S
C596        N597   1.363       .  A
C596        H598   1.081       .  S
N597        C599   1.360       .  A
N597        C777   1.448       .  S
C599        H600   1.082       .  S
In604       O606   2.263       .  S
In604       O607   2.227       .  S
In604       O615   2.249       .  S
In604       O609   2.250       .  S
In604       O611   2.260       .  S
In604       O612   2.236       .  S
In604       O613   2.222       .  S
In604       O616   2.238       .  S
C605        O611   1.263       .  A
C605        O613   1.260       .  A
C605        C657   1.474       .  S
O606        C614   1.264       .  A
O607        C614   1.258       .  A
C608        O615   1.262       .  A
C608        O609   1.261       .  A
C608        C724   1.483       .  S
C610        O612   1.260       .  A
C610        O616   1.262       .  A
C614        C664   1.482       .  S
In617       O619   2.250       .  S
In617       O620   2.246       .  S
In617       O628   2.230       .  S
In617       O622   2.241       .  S
In617       O624   2.273       .  S
In617       O625   2.229       .  S
In617       O626   2.219       .  S
In617       O629   2.244       .  S
C618        O624   1.262       .  A
C618        O626   1.257       .  A
C618        C707   1.476       .  S
O619        C627   1.261       .  A
O620        C627   1.259       .  A
C621        O628   1.262       .  A
C621        O622   1.264       .  A
C621        C817   1.475       .  S
C623        O625   1.261       .  A
C623        O629   1.261       .  A
C623        C677   1.471       .  S
C627        C667   1.480       .  S
C630        C632   1.536       .  S
C630        C634   1.556       .  S
C630        C633   1.540       .  S
C630        C717   1.535       .  S
C631        C635   1.526       .  S
C631        C637   1.547       .  S
C631        C636   1.543       .  S
C631        C654   1.531       .  S
C632        C640   1.383       .  A
C632        C635   1.380       .  A
C633        C644   1.371       .  A
C633        C636   1.390       .  A
C634        C648   1.391       .  A
C634        C637   1.415       .  A
C635        C638   1.373       .  A
C636        C642   1.387       .  A
C637        C645   1.379       .  A
C638        N639   1.354       .  A
C638        H651   1.082       .  S
N639        C640   1.364       .  A
N639        C687   1.442       .  S
C640        H641   1.082       .  S
C642        N643   1.363       .  A
C642        H652   1.081       .  S
N643        C644   1.353       .  A
N643        C697   1.443       .  S
C644        H650   1.081       .  S
C645        N646   1.353       .  A
C645        H647   1.081       .  S
N646        C648   1.359       .  A
N646        C857   1.452       .  S
C648        H649   1.078       .  S
C653        C654   1.414       .  A
C653        C658   1.401       .  A
C653        H660   1.077       .  S
C654        C655   1.413       .  A
C655        C656   1.394       .  A
C655        F662   1.356       .  S
C656        C657   1.400       .  A
C656        H661   1.083       .  S
C657        C658   1.402       .  A
C658        F659   1.358       .  S
C663        C664   1.404       .  A
C663        C668   1.400       .  A
C663        H670   1.083       .  S
C664        C665   1.410       .  A
C665        C666   1.397       .  A
C665        F672   1.358       .  S
C666        C667   1.402       .  A
C666        H671   1.083       .  S
C667        C668   1.409       .  A
C668        F669   1.357       .  S
C673        C674   1.403       .  A
C673        C678   1.395       .  A
C673        H680   1.083       .  S
C674        C675   1.409       .  A
C675        C676   1.398       .  A
C675        F682   1.357       .  S
C676        C677   1.403       .  A
C676        H681   1.083       .  S
C677        C678   1.405       .  A
C678        F679   1.358       .  S
C683        C688   1.397       .  A
C683        H690   1.083       .  S
C684        C685   1.406       .  A
C685        F692   1.357       .  S
C686        C687   1.409       .  A
C687        C688   1.405       .  A
C688        F689   1.356       .  S
C693        C694   1.409       .  A
C693        C698   1.402       .  A
C693        H700   1.082       .  S
C694        C695   1.402       .  A
C695        C696   1.394       .  A
C695        F702   1.357       .  S
C696        C697   1.409       .  A
C696        H701   1.082       .  S
C697        C698   1.405       .  A
C698        F699   1.356       .  S
C703        C704   1.410       .  A
C703        C708   1.391       .  A
C703        H710   1.078       .  S
C704        C705   1.418       .  A
C705        C706   1.405       .  A
C705        F712   1.355       .  S
C706        C707   1.401       .  A
C706        H711   1.083       .  S
C707        C708   1.402       .  A
C708        F709   1.358       .  S
C713        C714   1.407       .  A
C713        C718   1.405       .  A
C713        H720   1.083       .  S
C714        C715   1.404       .  A
C715        C716   1.393       .  A
C715        F722   1.358       .  S
C716        C717   1.410       .  A
C716        H721   1.083       .  S
C717        C718   1.409       .  A
C718        F719   1.353       .  S
C723        C724   1.404       .  A
C723        C728   1.401       .  A
C723        H730   1.083       .  S
C724        C725   1.409       .  A
C725        F732   1.357       .  S
C726        C727   1.405       .  A
C726        H731   1.083       .  S
C728        F729   1.357   1_565  S
C733        C734   1.408       .  A
C733        C738   1.402       .  A
C733        H740   1.078       .  S
C734        C735   1.415       .  A
C735        C736   1.396       .  A
C735        F742   1.358       .  S
C736        C737   1.398       .  A
C736        H741   1.084       .  S
C737        C738   1.404       .  A
C738        F739   1.357       .  S
C743        C744   1.406       .  A
C743        C748   1.401       .  A
C743        H750   1.083       .  S
C744        C745   1.408       .  A
C745        C746   1.401       .  A
C745        F752   1.357       .  S
C746        C747   1.406       .  A
C746        H751   1.083       .  S
C747        C748   1.408       .  A
C748        F749   1.357       .  S
C753        C754   1.403       .  A
C753        C758   1.395       .  A
C753        H760   1.083       .  S
C754        C755   1.409       .  A
C755        C756   1.399       .  A
C755        F762   1.357       .  S
C756        C757   1.403       .  A
C756        H761   1.083       .  S
C757        C758   1.408       .  A
C758        F759   1.358       .  S
C763        C764   1.410       .  A
C763        C768   1.397       .  A
C763        H770   1.081       .  S
C764        C765   1.411       .  A
C765        C766   1.397       .  A
C765        F772   1.356       .  S
C766        C767   1.402       .  A
C766        H771   1.084       .  S
C767        C768   1.402       .  A
C768        F769   1.358       .  S
C773        C774   1.405       .  A
C773        C778   1.398       .  A
C773        H780   1.083       .  S
C774        C775   1.406       .  A
C775        C776   1.400       .  A
C775        F782   1.357       .  S
C776        C777   1.409       .  A
C776        H781   1.082       .  S
C777        C778   1.410       .  A
C778        F779   1.356       .  S
C783        C784   1.398       .  A
C783        C788   1.401       .  A
C783        H790   1.083       .  S
C784        C785   1.402       .  A
C785        C786   1.396       .  A
C785        F792   1.358   1_554  S
C786        C787   1.410       .  A
C786        H791   1.078       .  S
C787        C788   1.420       .  A
C788        F789   1.354       .  S
C793        C794   1.406       .  A
C793        C798   1.404       .  A
C793        H800   1.083       .  S
C794        C795   1.410       .  A
C795        C796   1.397       .  A
C795        F802   1.357       .  S
C796        C797   1.402       .  A
C796        H801   1.083       .  S
C797        C798   1.410       .  A
C798        F799   1.357       .  S
C803        C804   1.404       .  A
C803        C808   1.399       .  A
C803        H810   1.083       .  S
C804        C805   1.405       .  A
C805        C806   1.393       .  A
C805        F812   1.357       .  S
C806        C807   1.403       .  A
C806        H811   1.083       .  S
C807        C808   1.408       .  A
C808        F809   1.358       .  S
C813        C814   1.406       .  A
C813        C818   1.395       .  A
C813        H820   1.082       .  S
C814        C815   1.409       .  A
C815        C816   1.399       .  A
C815        F822   1.356       .  S
C816        C817   1.404       .  A
C816        H821   1.083       .  S
C817        C818   1.406       .  A
C818        F819   1.358       .  S
C823        C824   1.402   1_546  A
C823        C828   1.397   1_556  A
C823        H830   1.083       .  S
C824        C825   1.410       .  A
C825        C826   1.400       .  A
C825        F832   1.357       .  S
C826        C827   1.403   1_565  A
C826        H831   1.083       .  S
C827        C828   1.412       .  A
C828        F829   1.357   1_554  S
C833        C834   1.404   1_554  A
C833        H840   1.082       .  S
C834        C835   1.409   1_655  A
C835        F842   1.357       .  S
C836        C837   1.400       .  A
C836        H841   1.083   1_554  S
C837        C838   1.407   1_545  A
C838        F839   1.357       .  S
C843        C844   1.414       .  A
C843        C848   1.405       .  A
C843        H850   1.076   1_545  S
C844        C845   1.414       .  A
C845        C846   1.390       .  A
C845        F852   1.356       .  S
C846        C847   1.400       .  A
C846        H851   1.083       .  S
C847        C848   1.404       .  A
C848        F849   1.357       .  S
C853        C854   1.402       .  A
C853        C858   1.397       .  A
C853        H860   1.083       .  S
C854        C855   1.409       .  A
C855        C856   1.404       .  A
C855        F862   1.357       .  S
C856        C857   1.409       .  A
C856        H861   1.081       .  S
C857        C858   1.414       .  A
C858        F859   1.356       .  S
C863        C864   1.410       .  A
C863        C868   1.397       .  A
C863        H870   1.074       .  S
C864        C865   1.420       .  A
C865        C866   1.403       .  A
C865        F872   1.355       .  S
C866        C867   1.399       .  A
C866        H871   1.083       .  S
C867        C868   1.403       .  A
C868        F869   1.358       .  S
C873        C874   1.405   1_556  A
C873        C878   1.402       .  A
C873        H880   1.083       .  S
C874        C875   1.410       .  A
C875        C876   1.403       .  A
C875        F882   1.357       .  S
C876        C877   1.406       .  A
C876        H881   1.083       .  S
C877        C878   1.410   1_554  A
C878        F879   1.357       .  S
C883        C884   1.397       .  A
C883        C888   1.394       .  A
C883        H890   1.084       .  S
C884        C885   1.405       .  A
C885        C886   1.404       .  A
C885        F892   1.357       .  S
C886        C887   1.409       .  A
C886        H891   1.079       .  S
C887        C888   1.414       .  A
C888        F889   1.358       .  S
C893        C894   1.407       .  A
C893        C898   1.402       .  A
C893        H900   1.083       .  S
C894        C895   1.410       .  A
C895        C896   1.404   1_655  A
C895        F902   1.357       .  S
C896        C897   1.406       .  A
C896        H901   1.083       .  S
C897        C898   1.408   1_455  A
C898        F899   1.357       .  S
C903        C904   1.403       .  A
C903        C908   1.401       .  A
C903        H910   1.083       .  S
C904        C905   1.408       .  A
C905        C906   1.396       .  A
C905        F912   1.358       .  S
C906        C907   1.404       .  A
C906        H911   1.083       .  S
C907        C908   1.409       .  A
C908        F909   1.357       .  S
