geometry optimzed in LAMMPS
_audit_creation_date              2020-12-01 
_audit_creation_method            'lammps2cif' 
_symmetry_space_group_name_H-M    'P1' 
_symmetry_Int_Tables_number       1 
_symmetry_cell_setting            triclinic 
loop_ 
_symmetry_equiv_pos_as_xyz 
  x,y,z 
_cell_length_a                    36.32042377 
_cell_length_b                    36.320116304880656 
_cell_length_c                    36.320071463179694 
_cell_angle_alpha                 90.00074810204525 
_cell_angle_beta                  90.00135010802478 
_cell_angle_gamma                 90.00164011798731 
loop_ 
_atom_site_label 
_atom_site_type_symbol 
_atom_site_fract_x 
_atom_site_fract_y 
_atom_site_fract_z 
_atom_site_charge 
C1          C  0.39421127  0.34184052  0.35991170     0.82100
N2          N  0.37074023  0.33685798  0.38859964    -0.76200
C3          C  0.34183414  0.35992073  0.39422496     0.84600
N4          N  0.33685390  0.38861116  0.37075603    -0.76100
C5          C  0.35991013  0.39423051  0.34184300     0.84700
N6          N  0.38859472  0.37075596  0.33685710    -0.77900
C7          C  0.15585065  0.39419091  0.17393546     0.82100
N8          N  0.12716088  0.37071892  0.17890446    -0.76200
C9          C  0.12153801  0.34181925  0.15583185     0.84600
N10         N  0.14501477  0.33684291  0.12714788    -0.76100
C11         C  0.17393351  0.35989721  0.12154516     0.84700
N12         N  0.17891532  0.38857707  0.14502806    -0.77900
C13         C  0.39418429  0.15586284  0.34179836     0.82100
N14         N  0.38858938  0.17892209  0.37071460    -0.76200
C15         C  0.35990669  0.17395412  0.39419476     0.84600
N16         N  0.33682875  0.14505743  0.38857915    -0.76100
C17         C  0.34179145  0.12158017  0.35989332     0.84700
N18         N  0.37069634  0.12718622  0.33682388    -0.77900
C19         C  0.17392473  0.15586199  0.39416170     0.82100
N20         N  0.17889977  0.12717892  0.37068275    -0.76200
C21         C  0.15582910  0.12155915  0.34178071     0.84600
N22         N  0.12714184  0.14503219  0.33680872    -0.76100
C23         C  0.12153019  0.17394117  0.35987228     0.84700
N24         N  0.14501048  0.17892001  0.38855500    -0.77900
C25         C  0.17393802  0.39420851  0.35990490     0.82100
N26         N  0.17891327  0.37073216  0.38858974    -0.76200
C27         C  0.15585438  0.34181811  0.39419736     0.84600
N28         N  0.12717211  0.33683883  0.37071684    -0.76100
C29         C  0.12155997  0.35990190  0.34180732     0.84700
N30         N  0.14503484  0.38858933  0.33683536    -0.77900
C31         C  0.39416289  0.17395894  0.15583223     0.82100
N32         N  0.37068010  0.17891852  0.12715015    -0.76200
C33         C  0.34178567  0.15583648  0.12153982     0.84600
N34         N  0.33682505  0.12715386  0.14502136    -0.76100
C35         C  0.35989135  0.12156012  0.17393190     0.84700
N36         N  0.38856679  0.14505079  0.17890093    -0.77900
O37         O  0.23363193  0.21136661  0.03753730    -0.72500
O38         O  0.28212278  0.30436892  0.03756445    -0.72600
O39         O  0.30437727  0.23362386  0.03755125    -0.72600
O40         O  0.21137776  0.28211123  0.03754921    -0.72700
O41         O  0.22084561  0.29637394  0.09581314    -0.72600
O42         O  0.29489033  0.21934180  0.09580638    -0.72600
O43         O  0.29638569  0.29488214  0.09582499    -0.72600
O44         O  0.21935122  0.22083270  0.09579628    -0.72600
Ni45       Ni  0.25787778  0.25786827  0.03537637     1.25400
Ni46       Ni  0.25786792  0.25785688  0.09923028     1.25400
C47         C  0.21312073  0.20460181  0.06486303     0.89600
C48         C  0.30262537  0.31112414  0.06490013     0.89600
C49         C  0.31112914  0.21311066  0.06487823     0.89600
C50         C  0.20461507  0.30261416  0.06488211     0.89800
N51         N  0.17804638  0.18767643  0.05776850    -0.01600
C52         C  0.15051462  0.18487001  0.08277927     0.01000
C53         C  0.11753661  0.17827831  0.06506015    -0.21900
C54         C  0.12524531  0.17613675  0.02813458    -0.22100
C55         C  0.16282583  0.18121224  0.02390202     0.00900
H56         H  0.09154209  0.17115817  0.07780278     0.14700
H57         H  0.10624403  0.16685000  0.00712057     0.14700
N58         N  0.18769422  0.33769147  0.05779830    -0.01600
C59         C  0.18489253  0.36521770  0.08281639     0.01000
C60         C  0.17830845  0.39820075  0.06510515    -0.21900
C61         C  0.17616566  0.39049998  0.02817725    -0.22100
C62         C  0.18123370  0.35291943  0.02393557     0.00900
H63         H  0.17119064  0.42419302  0.07785413     0.14700
H64         H  0.16688121  0.40950660  0.00716804     0.14700
N65         N  0.32804721  0.17803319  0.05778991    -0.01600
C66         C  0.33084097  0.15050756  0.08280809     0.01000
C67         C  0.33743543  0.11752494  0.06509983    -0.21900
C68         C  0.33959326  0.12522655  0.02817290    -0.22100
C69         C  0.33452336  0.16280717  0.02392900     0.00900
H70         H  0.34455097  0.09153360  0.07785164     0.14700
H71         H  0.34888785  0.10622049  0.00716768     0.14700
N72         N  0.33770153  0.32805215  0.05782433    -0.01600
C73         C  0.36522136  0.33085716  0.08284897     0.01000
C74         C  0.39820925  0.33743739  0.06514572    -0.21900
C75         C  0.39051801  0.33957396  0.02821584    -0.22100
C76         C  0.35293797  0.33450774  0.02396452     0.00900
H77         H  0.42419880  0.34455670  0.07790041     0.14700
H78         H  0.40953058  0.34885666  0.00721129     0.14700
O79         O  0.22086415  0.21937013  0.41991323    -0.72500
O80         O  0.29492013  0.29639946  0.41994274    -0.72600
O81         O  0.29640470  0.22085877  0.41993022    -0.72600
O82         O  0.21937869  0.29491097  0.41992745    -0.72700
O83         O  0.23364454  0.30437683  0.47819084    -0.72600
O84         O  0.28212200  0.21137127  0.47818499    -0.72600
O85         O  0.30438666  0.28211510  0.47820095    -0.72600
O86         O  0.21137992  0.23363365  0.47817376    -0.72600
Ni87       Ni  0.25789268  0.25788540  0.41650824     1.25400
Ni88       Ni  0.25788286  0.25787379  0.48036185     1.25400
C89         C  0.20462175  0.21313201  0.45083806     0.89600
C90         C  0.31115294  0.30262681  0.45087573     0.89600
C91         C  0.30263346  0.20461699  0.45085757     0.89600
C92         C  0.21314044  0.31114104  0.45085901     0.89800
N93         N  0.18768868  0.17805793  0.45791424    -0.01600
C94         C  0.18487959  0.15053640  0.43289151     0.01000
C95         C  0.17828921  0.11755121  0.45059689    -0.21900
C96         C  0.17615098  0.12524537  0.48752583    -0.22100
C97         C  0.18122640  0.16282461  0.49177450     0.00900
H98         H  0.17116549  0.09156210  0.43784352     0.14700
H99         H  0.16686159  0.10623649  0.00853108     0.14700
N100        N  0.17806381  0.32806242  0.45794455    -0.01600
C101        C  0.15053597  0.33086372  0.43292789     0.01000
C102        C  0.11755484  0.33745145  0.45064048    -0.21900
C103        C  0.12525821  0.33959709  0.48756765    -0.22100
C104        C  0.16283837  0.33452687  0.49180752     0.00900
H105        H  0.09156218  0.34456941  0.43789234     0.14700
H106        H  0.10625316  0.34888309  0.00857725     0.14700
N107        N  0.33770676  0.18768987  0.45794538    -0.01600
C108        C  0.36523375  0.18489021  0.43292929     0.01000
C109        C  0.39821178  0.17827936  0.45063995    -0.21900
C110        C  0.39050629  0.17611724  0.48756555    -0.22100
C111        C  0.35292786  0.18120145  0.49180645     0.00900
H112        H  0.42420142  0.17115636  0.43788943     0.14700
H113        H  0.40950655  0.16681233  0.00857160     0.14700
N114        N  0.32808432  0.33769851  0.45797077    -0.01600
C115        C  0.33089526  0.36523152  0.43296113     0.01000
C116        C  0.33749885  0.39820673  0.45068132    -0.21900
C117        C  0.33964360  0.39049489  0.48760618    -0.22100
C118        C  0.33455785  0.35291529  0.49183715     0.00900
H119        H  0.34462472  0.42420020  0.43793917     0.14700
H120        H  0.34893697  0.40949255  0.00862030     0.14700
O121        O  0.22083415  0.09582063  0.21934464    -0.72500
O122        O  0.29488211  0.09583407  0.29638036    -0.72600
O123        O  0.29637529  0.09582852  0.22084059    -0.72600
O124        O  0.21934291  0.09582471  0.29488501    -0.72700
O125        O  0.23362149  0.03756841  0.30436832    -0.72600
O126        O  0.28210967  0.03756598  0.21136821    -0.72600
O127        O  0.30436526  0.03757415  0.28211434    -0.72600
O128        O  0.21136434  0.03756116  0.23362245    -0.72600
Ni129      Ni  0.25785843  0.09924705  0.25786220     1.25400
Ni130      Ni  0.25786530  0.03539320  0.25786815     1.25400
C131        C  0.20459975  0.06488934  0.21311388     0.89600
C132        C  0.31112027  0.06490733  0.30261994     0.89600
C133        C  0.30261550  0.06489789  0.20460969     0.89600
C134        C  0.21311113  0.06489636  0.31112361     0.89800
N135        N  0.18766818  0.05779839  0.17804177    -0.01600
C136        C  0.18485262  0.08281112  0.15051210     0.01000
C137        C  0.17826565  0.06509246  0.11753280    -0.21900
C138        C  0.17613675  0.02816537  0.12523871    -0.22100
C139        C  0.18121395  0.02393111  0.16281923     0.00900
H140        H  0.17114019  0.07783496  0.09153943     0.14700
H141        H  0.16685431  0.00715046  0.10623625     0.14700
N142        N  0.33769547  0.05781404  0.18769532    -0.01600
C143        C  0.36521932  0.08283472  0.18489725     0.01000
C144        C  0.39820461  0.06512725  0.17831745    -0.21900
C145        C  0.39050662  0.02819845  0.17617261    -0.22100
C146        C  0.35292576  0.02395295  0.18123581     0.00900
H147        H  0.42419617  0.07787903  0.17120176     0.14700
H148        H  0.40951573  0.00719151  0.16688911     0.14700
N149        N  0.17803583  0.05780832  0.32804655    -0.01600
C150        C  0.15050825  0.08282412  0.33084172     0.01000
C151        C  0.11752759  0.06511236  0.33743731    -0.21900
C152        C  0.12523131  0.02818633  0.33959348    -0.22100
C153        C  0.16281145  0.02394596  0.33452207     0.00900
H154        H  0.09153535  0.07786145  0.34455285     0.14700
H155        H  0.10622690  0.00717901  0.34888734     0.14700
N156        N  0.32804150  0.05782798  0.33769895    -0.01600
C157        C  0.33083833  0.08285082  0.36522096     0.01000
C158        C  0.33742290  0.06514726  0.39820824    -0.21900
C159        C  0.33957090  0.02821879  0.39051446    -0.22100
C160        C  0.33450619  0.02396903  0.35293375     0.00900
H161        H  0.34453778  0.07790212  0.42419911     0.14700
H162        H  0.34885777  0.00721528  0.40952609     0.14700
O163        O  0.21936495  0.41993701  0.22085710    -0.72500
O164        O  0.29639296  0.41995330  0.29491411    -0.72600
O165        O  0.22085252  0.41994490  0.29639819    -0.72600
O166        O  0.29490497  0.41994770  0.21937206    -0.72700
O167        O  0.30437529  0.47820939  0.23364158    -0.72600
O168        O  0.21136972  0.47820095  0.28211802    -0.72600
O169        O  0.28211274  0.47821159  0.30438464    -0.72600
O170        O  0.23363283  0.47819712  0.21137640    -0.72600
Ni171      Ni  0.25787939  0.41652556  0.25788570     1.25400
Ni172      Ni  0.25787254  0.48037900  0.25788019     1.25400
C173        C  0.21312873  0.45086359  0.20461700     0.89600
C174        C  0.30262199  0.45088436  0.31114953     0.89600
C175        C  0.20461206  0.45087236  0.30262750     0.89600
C176        C  0.31113676  0.45087895  0.21313526     0.89800
N177        N  0.17805440  0.45794321  0.18768616    -0.01600
C178        C  0.15052974  0.43292309  0.18488316     0.01000
C179        C  0.11754657  0.45063059  0.17829063    -0.21900
C180        C  0.12524496  0.48755808  0.17614428    -0.22100
C181        C  0.16282443  0.49180369  0.18121759     0.00900
H182        H  0.09155577  0.43787873  0.17117092     0.14700
H183        H  0.10623795  0.00856392  0.16685441     0.14700
N184        N  0.32805764  0.45796517  0.17805812    -0.01600
C185        C  0.33085644  0.43294841  0.15053048     0.01000
C186        C  0.33745698  0.45065924  0.11755039    -0.21900
C187        C  0.33961428  0.48758559  0.12525502    -0.22100
C188        C  0.33453690  0.49182617  0.16283453     0.00900
H189        H  0.34457729  0.43790927  0.09155928     0.14700
H190        H  0.34891056  0.00859263  0.10625237     0.14700
N191        N  0.18768236  0.45795946  0.33769988    -0.01600
C192        C  0.18487772  0.43294346  0.36522712     0.01000
C193        C  0.17827592  0.45065557  0.39820634    -0.21900
C194        C  0.17612606  0.48758201  0.39050188    -0.22100
C195        C  0.18120687  0.49182229  0.35292256     0.00900
H196        H  0.17115294  0.43790682  0.42419718     0.14700
H197        H  0.16682929  0.00859013  0.40950424     0.14700
N198        N  0.33769321  0.45797612  0.32808251    -0.01600
C199        C  0.36522370  0.43296469  0.33089738     0.01000
C200        C  0.39819990  0.45068359  0.33749878    -0.21900
C201        C  0.39049111  0.48760940  0.33963784    -0.22100
C202        C  0.35291215  0.49184228  0.33455113     0.00900
H203        H  0.42419176  0.43794059  0.34462738     0.14700
H204        H  0.40948991  0.00862322  0.34893071     0.14700
C205        C  0.39418891  0.35992862  0.17395640     0.82100
N206        N  0.38857447  0.33685239  0.14505792    -0.76200
C207        C  0.35989306  0.34182037  0.12157566     0.84600
N208        N  0.33683151  0.37073326  0.12717498    -0.76100
C209        C  0.34180483  0.39421792  0.15585492     0.84700
N210        N  0.37071179  0.38861295  0.17892234    -0.77900
O211        O  0.09578940  0.21936638  0.22081168    -0.72500
O212        O  0.09581261  0.29638999  0.29487408    -0.72600
O213        O  0.09579948  0.22084843  0.29635411    -0.72600
O214        O  0.09579999  0.29490802  0.21933283    -0.72700
O215        O  0.03754544  0.30439231  0.23361549    -0.72600
O216        O  0.03753783  0.21138105  0.28208418    -0.72600
O217        O  0.03755314  0.28212221  0.30435576    -0.72600
O218        O  0.03753222  0.23365052  0.21134320    -0.72600
Ni219      Ni  0.09922057  0.25787764  0.25784266     1.25400
Ni220      Ni  0.03536787  0.25788678  0.25784985     1.25400
C221        C  0.06485779  0.21314002  0.20457636     0.89600
C222        C  0.06488723  0.30262546  0.31111584     0.89600
C223        C  0.06486843  0.20461605  0.30258931     0.89600
C224        C  0.06487312  0.31115034  0.21310546     0.89800
N225        N  0.05776370  0.17807025  0.18764045    -0.01600
C226        C  0.08277186  0.15053633  0.18482679     0.01000
C227        C  0.06505029  0.11756374  0.17821337    -0.21900
C228        C  0.02812659  0.12527805  0.17606500    -0.22100
C229        C  0.02389769  0.16285653  0.18115894     0.00900
H230        H  0.07779156  0.09157147  0.17108294     0.14700
H231        H  0.00711239  0.10628382  0.16676406     0.14700
N232        N  0.05778583  0.32808351  0.17803440    -0.01600
C233        C  0.08280127  0.33088922  0.15050708     0.01000
C234        C  0.06509004  0.33750429  0.11752992    -0.21900
C235        C  0.02816475  0.33966152  0.12523569    -0.22100
C236        C  0.02392448  0.33457117  0.16281374     0.00900
H237        H  0.07783983  0.34463105  0.09154063     0.14700
H238        H  0.00715822  0.34896675  0.10623603     0.14700
N239        N  0.05778228  0.18768947  0.33766404    -0.01600
C240        C  0.08279790  0.18488561  0.36519265     0.01000
C241        C  0.06508563  0.17828306  0.39817138    -0.21900
C242        C  0.02815970  0.17613054  0.39046559    -0.22100
C243        C  0.02392053  0.18121194  0.35288646     0.00900
H244        H  0.07783417  0.17116015  0.42416265     0.14700
H245        H  0.00715110  0.16683423  0.40946692     0.14700
N246        N  0.05780868  0.33769863  0.32804981     0.00400
C247        C  0.08282850  0.36522340  0.33085734     0.01000
C248        C  0.06512047  0.39820585  0.33745248    -0.21900
C249        C  0.02819311  0.39050690  0.33959568    -0.22100
C250        C  0.02394811  0.35292765  0.33451804     0.00900
H251        H  0.07787177  0.42419604  0.34457603     0.14700
H252        H  0.00718690  0.40951276  0.34888724     0.14700
O253        O  0.47818019  0.28214050  0.21135932    -0.72500
O254        O  0.47818103  0.23364386  0.30435543    -0.72600
O255        O  0.47816997  0.21139385  0.23360746    -0.72600
O256        O  0.47818979  0.30439099  0.28210697    -0.72700
O257        O  0.41993061  0.29492224  0.29638412    -0.72600
O258        O  0.41990993  0.22087951  0.21934438    -0.72600
O259        O  0.41991783  0.21938140  0.29488441    -0.72600
O260        O  0.41992454  0.29641851  0.22084446    -0.72600
Ni261      Ni  0.48035442  0.25789188  0.25785727     1.25400
Ni262      Ni  0.41650083  0.25790081  0.25786465     1.25400
C263        C  0.45085275  0.30265225  0.20460704     0.89600
C264        C  0.45084820  0.21313975  0.31111505     0.89600
C265        C  0.45083568  0.20464111  0.21310252     0.89600
C266        C  0.45086272  0.31115411  0.30261672     0.89800
N267        N  0.45791290  0.18772311  0.17802191    -0.01600
C268        C  0.43288779  0.18492583  0.15050211     0.01000
C269        C  0.45058949  0.17835433  0.11751160    -0.21900
C270        C  0.48751931  0.17621493  0.12520152    -0.22100
C271        C  0.49177182  0.18127110  0.16278324     0.00900
H272        H  0.43783398  0.17124143  0.09152058     0.14700
H273        H  0.00852258  0.16693630  0.10618602     0.14700
N274        N  0.45794014  0.33773089  0.18769057    -0.01600
C275        C  0.43292157  0.36525569  0.18489861     0.01000
C276        C  0.45062903  0.39824006  0.17830923    -0.21900
C277        C  0.48755591  0.39054076  0.17615359    -0.22100
C278        C  0.49180082  0.35295975  0.18121922     0.00900
H279        H  0.43787706  0.42423202  0.17119688     0.14700
H280        H  0.00856083  0.40954958  0.16686414     0.14700
N281        N  0.45793066  0.17806002  0.32803125    -0.01600
C282        C  0.43290934  0.15053688  0.33083114     0.01000
C283        C  0.45061641  0.11754987  0.33740480    -0.21900
C284        C  0.48754560  0.12524563  0.33954315    -0.22100
C285        C  0.49179208  0.16282713  0.33448316     0.00900
H286        H  0.43786485  0.09155772  0.34451947     0.14700
H287        H  0.00855295  0.10623428  0.34882199     0.14700
N288        N  0.45795501  0.32807913  0.33769165    -0.01600
C289        C  0.43294319  0.33088673  0.36522233     0.01000
C290        C  0.45066186  0.33747036  0.39820235    -0.21900
C291        C  0.48758806  0.33960575  0.39049586    -0.22100
C292        C  0.49182164  0.33453509  0.35291453     0.00900
H293        H  0.43791942  0.34459005  0.42419709     0.14700
H294        H  0.00860225  0.34888718  0.40949934     0.14700
C295        C  0.17389725  0.12154290  0.15582380     0.82100
N296        N  0.14497918  0.12715832  0.17887508    -0.76200
C297        C  0.12150861  0.15584692  0.17389044     0.84600
N298        N  0.12713433  0.17890757  0.14498221    -0.76100
C299        C  0.15582466  0.17392638  0.12151443     0.84700
N300        N  0.17888376  0.14501676  0.12713830    -0.77900
C301        C  0.39421104  0.34184062  0.85991185     0.82100
N302        N  0.37073997  0.33685813  0.88859975    -0.76200
C303        C  0.34183391  0.35992093  0.89422503     0.84600
N304        N  0.33685380  0.38861141  0.87075614    -0.76100
C305        C  0.35991007  0.39423075  0.84184315     0.84700
N306        N  0.38859465  0.37075613  0.83685727    -0.77900
C307        C  0.15585056  0.39419068  0.67393559     0.82100
N308        N  0.12716088  0.37071858  0.67890451    -0.76200
C309        C  0.12153805  0.34181907  0.65583171     0.84600
N310        N  0.14501485  0.33684288  0.62714775    -0.76100
C311        C  0.17393364  0.35989719  0.62154522     0.84700
N312        N  0.17891529  0.38857701  0.64502820    -0.77900
C313        C  0.39418406  0.15586291  0.84179842     0.82100
N314        N  0.38858918  0.17892207  0.87071475    -0.76200
C315        C  0.35990641  0.17395415  0.89419480     0.84600
N316        N  0.33682836  0.14505758  0.88857904    -0.76100
C317        C  0.34179105  0.12158037  0.85989315     0.84700
N318        N  0.37069603  0.12718638  0.83682380    -0.77900
C319        C  0.17392449  0.15586221  0.89416163     0.82100
N320        N  0.17889963  0.12717910  0.87068274    -0.76200
C321        C  0.15582901  0.12155925  0.84178066     0.84600
N322        N  0.12714175  0.14503222  0.83680860    -0.76100
C323        C  0.12153000  0.17394124  0.85987208     0.84700
N324        N  0.14501027  0.17892022  0.88855480    -0.77900
C325        C  0.17393766  0.39420867  0.85990518     0.82100
N326        N  0.17891297  0.37073226  0.88858995    -0.76200
C327        C  0.15585423  0.34181806  0.89419738     0.84600
N328        N  0.12717205  0.33683873  0.87071681    -0.76100
C329        C  0.12155979  0.35990191  0.84180740     0.84700
N330        N  0.14503454  0.38858947  0.83683557    -0.77900
C331        C  0.39416290  0.17395897  0.65583214     0.82100
N332        N  0.37068004  0.17891864  0.62715017    -0.76200
C333        C  0.34178568  0.15583654  0.62153976     0.84600
N334        N  0.33682507  0.12715391  0.64502127    -0.76100
C335        C  0.35989138  0.12156013  0.67393181     0.84700
N336        N  0.38856689  0.14505075  0.67890079    -0.77900
O337        O  0.23363240  0.21136668  0.53753729    -0.72500
O338        O  0.28212319  0.30436899  0.53756441    -0.72600
O339        O  0.30437772  0.23362398  0.53755121    -0.72600
O340        O  0.21137814  0.28211121  0.53754926    -0.72700
O341        O  0.22084594  0.29637392  0.59581318    -0.72600
O342        O  0.29489086  0.21934194  0.59580635    -0.72600
O343        O  0.29638596  0.29488233  0.59582501    -0.72600
O344        O  0.21935175  0.22083259  0.59579632    -0.72600
Ni345      Ni  0.25787822  0.25786832  0.53537640     1.25400
Ni346      Ni  0.25786834  0.25785693  0.59923034     1.25400
C347        C  0.21312123  0.20460179  0.56486304     0.89600
C348        C  0.30262567  0.31112432  0.56490013     0.89600
C349        C  0.31112959  0.21311077  0.56487817     0.89600
C350        C  0.20461539  0.30261414  0.56488216     0.89800
N351        N  0.17804691  0.18767639  0.55776848    -0.01600
C352        C  0.15051505  0.18487010  0.58277916     0.01000
C353        C  0.11753712  0.17827822  0.56505995    -0.21900
C354        C  0.12524597  0.17613638  0.52813445    -0.22100
C355        C  0.16282649  0.18121194  0.52390200     0.00900
H356        H  0.09154259  0.17115800  0.57780253     0.14700
H357        H  0.10624477  0.16684939  0.50712043     0.14700
N358        N  0.18769449  0.33769148  0.55779835    -0.01600
C359        C  0.18489288  0.36521769  0.58281650     0.01000
C360        C  0.17830898  0.39820082  0.56510532    -0.21900
C361        C  0.17616622  0.39050013  0.52817739    -0.22100
C362        C  0.18123414  0.35291956  0.52393563     0.00900
H363        H  0.17119123  0.42419306  0.57785433     0.14700
H364        H  0.16688188  0.40950683  0.50716823     0.14700
N365        N  0.32804753  0.17803326  0.55778981    -0.01600
C366        C  0.33084121  0.15050760  0.58280795     0.01000
C367        C  0.33743585  0.11752502  0.56509966    -0.21900
C368        C  0.33959385  0.12522672  0.52817276    -0.22100
C369        C  0.33452389  0.16280731  0.52392891     0.00900
H370        H  0.34455141  0.09153371  0.57785145     0.14700
H371        H  0.34888853  0.10622068  0.50716749     0.14700
N372        N  0.33770186  0.32805233  0.55782438    -0.01600
C373        C  0.36522164  0.33085730  0.58284907     0.01000
C374        C  0.39820958  0.33743735  0.56514588    -0.21900
C375        C  0.39051850  0.33957386  0.52821596    -0.22100
C376        C  0.35293841  0.33450768  0.52396458     0.00900
H377        H  0.42419917  0.34455666  0.57790062     0.14700
H378        H  0.40953106  0.34885652  0.50721153     0.14700
O379        O  0.22086388  0.21937016  0.91991335    -0.72500
O380        O  0.29492007  0.29639932  0.91994269    -0.72600
O381        O  0.29640443  0.22085872  0.91993031    -0.72600
O382        O  0.21937858  0.29491107  0.91992742    -0.72700
O383        O  0.23364437  0.30437702  0.97819080    -0.72600
O384        O  0.28212167  0.21137132  0.97818509    -0.72600
O385        O  0.30438640  0.28211512  0.97820098    -0.72600
O386        O  0.21137959  0.23363373  0.97817387    -0.72600
Ni387      Ni  0.25789250  0.25788539  0.91650830     1.25400
Ni388      Ni  0.25788257  0.25787389  0.98036192     1.25400
C389        C  0.20462139  0.21313211  0.95083814     0.89600
C390        C  0.31115278  0.30262676  0.95087570     0.89600
C391        C  0.30263314  0.20461698  0.95085768     0.89600
C392        C  0.21314028  0.31114117  0.95085897     0.89800
N393        N  0.18768809  0.17805811  0.95791424    -0.01600
C394        C  0.18487902  0.15053658  0.93289151     0.01000
C395        C  0.17828835  0.11755140  0.95059685    -0.21900
C396        C  0.17615002  0.12524561  0.98752578    -0.22100
C397        C  0.18122558  0.16282483  0.99177448     0.00900
H398        H  0.17116456  0.09156237  0.93784346     0.14700
H399        H  0.16686273  0.10623623  0.50853116     0.14700
N400        N  0.17806354  0.32806231  0.95794450    -0.01600
C401        C  0.15053576  0.33086350  0.93292783     0.01000
C402        C  0.11755452  0.33745101  0.95064035    -0.21900
C403        C  0.12525787  0.33959653  0.98756755    -0.22100
C404        C  0.16283804  0.33452654  0.99180749     0.00900
H405        H  0.09156192  0.34456893  0.93789220     0.14700
H406        H  0.10625362  0.34888376  0.50857730     0.14700
N407        N  0.33770642  0.18768976  0.95794545    -0.01600
C408        C  0.36523342  0.18489008  0.93292939     0.01000
C409        C  0.39821147  0.17827909  0.95064005    -0.21900
C410        C  0.39050590  0.17611701  0.98756569    -0.22100
C411        C  0.35292745  0.18120120  0.99180652     0.00900
H412        H  0.42420102  0.17115607  0.93788960     0.14700
H413        H  0.40950699  0.16681249  0.50857146     0.14700
N414        N  0.32808395  0.33769855  0.95797074    -0.01600
C415        C  0.33089480  0.36523159  0.93296112     0.01000
C416        C  0.33749817  0.39820687  0.95068128    -0.21900
C417        C  0.33964281  0.39049500  0.98760618    -0.22100
C418        C  0.33455725  0.35291535  0.99183715     0.00900
H419        H  0.34462408  0.42420023  0.93793918     0.14700
H420        H  0.34893786  0.40949239  0.50862033     0.14700
O421        O  0.22083398  0.09582066  0.71934440    -0.72500
O422        O  0.29488190  0.09583429  0.79638009    -0.72600
O423        O  0.29637507  0.09582861  0.72084030    -0.72600
O424        O  0.21934269  0.09582487  0.79488484    -0.72700
O425        O  0.23362134  0.03756859  0.80436815    -0.72600
O426        O  0.28210954  0.03756602  0.71136806    -0.72600
O427        O  0.30436503  0.03757432  0.78211419    -0.72600
O428        O  0.21136425  0.03756119  0.73362222    -0.72600
Ni429      Ni  0.25785823  0.09924719  0.75786195     1.25400
Ni430      Ni  0.25786516  0.03539335  0.75786798     1.25400
C431        C  0.20459957  0.06488936  0.71311367     0.89600
C432        C  0.31111999  0.06490754  0.80261975     0.89600
C433        C  0.30261533  0.06489795  0.70460947     0.89600
C434        C  0.21311098  0.06489650  0.81112346     0.89800
N435        N  0.18766789  0.05779839  0.67804161    -0.01600
C436        C  0.18485236  0.08281114  0.65051197     0.01000
C437        C  0.17826557  0.06509254  0.61753262    -0.21900
C438        C  0.17613674  0.02816542  0.62523842    -0.22100
C439        C  0.18121386  0.02393112  0.66281895     0.00900
H440        H  0.17114030  0.07783511  0.59153918     0.14700
H441        H  0.16685450  0.00715053  0.60623591     0.14700
N442        N  0.33769533  0.05781408  0.68769514    -0.01600
C443        C  0.36521923  0.08283472  0.68489720     0.01000
C444        C  0.39820448  0.06512721  0.67831740    -0.21900
C445        C  0.39050644  0.02819843  0.67617247    -0.22100
C446        C  0.35292558  0.02395299  0.68123561     0.00900
H447        H  0.42419602  0.07787897  0.67120176     0.14700
H448        H  0.40951552  0.00719149  0.66688901     0.14700
N449        N  0.17803572  0.05780842  0.82804654    -0.01600
C450        C  0.15050816  0.08282417  0.83084186     0.01000
C451        C  0.11752752  0.06511240  0.83743768    -0.21900
C452        C  0.12523129  0.02818639  0.83959387    -0.22100
C453        C  0.16281140  0.02394604  0.83452217     0.00900
H454        H  0.09153531  0.07786149  0.84455334     0.14700
H455        H  0.10622693  0.00717903  0.84888791     0.14700
N456        N  0.32804112  0.05782822  0.83769878    -0.01600
C457        C  0.33083787  0.08285106  0.86522079     0.01000
C458        C  0.33742244  0.06514749  0.89820807    -0.21900
C459        C  0.33957038  0.02821901  0.89051430    -0.22100
C460        C  0.33450583  0.02396929  0.85293358     0.00900
H461        H  0.34453734  0.07790234  0.92419892     0.14700
H462        H  0.34885714  0.00721547  0.90952596     0.14700
O463        O  0.21936470  0.41993695  0.72085767    -0.72500
O464        O  0.29639277  0.41995346  0.79491461    -0.72600
O465        O  0.22085222  0.41994497  0.79639873    -0.72600
O466        O  0.29490470  0.41994761  0.71937260    -0.72700
O467        O  0.30437511  0.47820939  0.73364182    -0.72600
O468        O  0.21136948  0.47820102  0.78211835    -0.72600
O469        O  0.28211257  0.47821178  0.80438492    -0.72600
O470        O  0.23363258  0.47819702  0.71137660    -0.72600
Ni471      Ni  0.25787914  0.41652558  0.75788627     1.25400
Ni472      Ni  0.25787235  0.48037907  0.75788044     1.25400
C473        C  0.21312844  0.45086345  0.70461740     0.89600
C474        C  0.30262182  0.45088458  0.81114992     0.89600
C475        C  0.20461178  0.45087246  0.80262793     0.89600
C476        C  0.31113653  0.45087883  0.71313564     0.89800
N477        N  0.17805405  0.45794297  0.68768660    -0.01600
C478        C  0.15052947  0.43292277  0.68488349     0.01000
C479        C  0.11754620  0.45063017  0.67829109    -0.21900
C480        C  0.12524444  0.48755772  0.67614496    -0.22100
C481        C  0.16282394  0.49180341  0.68121819     0.00900
H482        H  0.09155543  0.43787826  0.67117138     0.14700
H483        H  0.10623792  0.00856367  0.66685327     0.14700
N484        N  0.32805735  0.45796493  0.67805843    -0.01600
C485        C  0.33085599  0.43294817  0.65053077     0.01000
C486        C  0.33745614  0.45065897  0.61755059    -0.21900
C487        C  0.33961347  0.48758533  0.62525521    -0.22100
C488        C  0.33453640  0.49182593  0.66283477     0.00900
H489        H  0.34457626  0.43790896  0.59155951     0.14700
H490        H  0.34891021  0.00859270  0.60625217     0.14700
N491        N  0.18768208  0.45795963  0.83770030    -0.01600
C492        C  0.18487739  0.43294356  0.86522750     0.01000
C493        C  0.17827585  0.45065556  0.89820682    -0.21900
C494        C  0.17612621  0.48758204  0.89050249    -0.22100
C495        C  0.18120691  0.49182245  0.85292313     0.00900
H496        H  0.17115290  0.43790671  0.92419759     0.14700
H497        H  0.16682974  0.00859035  0.90950414     0.14700
N498        N  0.33769306  0.45797638  0.82808282    -0.01600
C499        C  0.36522358  0.43296496  0.83089753     0.01000
C500        C  0.39819980  0.45068390  0.83749865    -0.21900
C501        C  0.39049100  0.48760971  0.83963762    -0.22100
C502        C  0.35291203  0.49184259  0.83455116     0.00900
H503        H  0.42419170  0.43794093  0.84462713     0.14700
H504        H  0.40948964  0.00862354  0.84893049     0.14700
C505        C  0.39418900  0.35992880  0.67395652     0.82100
N506        N  0.38857469  0.33685257  0.64505802    -0.76200
C507        C  0.35989326  0.34182042  0.62157578     0.84600
N508        N  0.33683152  0.37073314  0.62717516    -0.76100
C509        C  0.34180473  0.39421780  0.65585512     0.84700
N510        N  0.37071178  0.38861304  0.67892246    -0.77900
O511        O  0.09578933  0.21936664  0.72081153    -0.72500
O512        O  0.09581255  0.29639010  0.79487409    -0.72600
O513        O  0.09579940  0.22084855  0.79635397    -0.72600
O514        O  0.09579999  0.29490825  0.71933287    -0.72700
O515        O  0.03754543  0.30439256  0.73361542    -0.72600
O516        O  0.03753779  0.21138117  0.78208387    -0.72600
O517        O  0.03755306  0.28212229  0.80435560    -0.72600
O518        O  0.03753221  0.23365091  0.71134288    -0.72600
Ni519      Ni  0.09922052  0.25787783  0.75784260     1.25400
Ni520      Ni  0.03536782  0.25788698  0.75784964     1.25400
C521        C  0.06485777  0.21314038  0.70457607     0.89600
C522        C  0.06488714  0.30262550  0.81111581     0.89600
C523        C  0.06486835  0.20461613  0.80258905     0.89600
C524        C  0.06487312  0.31115054  0.71310544     0.89800
N525        N  0.05776369  0.17807064  0.68764004    -0.01600
C526        C  0.08277178  0.15053664  0.68482633     0.01000
C527        C  0.06505013  0.11756412  0.67821264    -0.21900
C528        C  0.02812649  0.12527858  0.67606409    -0.22100
C529        C  0.02389768  0.16285703  0.68115830     0.00900
H530        H  0.07779130  0.09157185  0.67108213     0.14700
H531        H  0.00711228  0.10628445  0.66676296     0.14700
N532        N  0.05778590  0.32808354  0.67803431    -0.01600
C533        C  0.08280130  0.33088903  0.65050695     0.01000
C534        C  0.06509004  0.33750399  0.61752976    -0.21900
C535        C  0.02816480  0.33966143  0.62523565    -0.22100
C536        C  0.02392454  0.33457128  0.66281369     0.00900
H537        H  0.07783976  0.34463052  0.59154041     0.14700
H538        H  0.00715817  0.34896665  0.60623597     0.14700
N539        N  0.05778212  0.18768943  0.83766371    -0.01600
C540        C  0.08279768  0.18488558  0.86519239     0.01000
C541        C  0.06508529  0.17828298  0.89817105    -0.21900
C542        C  0.02815940  0.17613046  0.89046520    -0.22100
C543        C  0.02392034  0.18121186  0.85288606     0.00900
H544        H  0.07783378  0.17116006  0.92416244     0.14700
H545        H  0.00715072  0.16683417  0.90946645     0.14700
N546        N  0.05780853  0.33769855  0.82805001     0.00400
C547        C  0.08282828  0.36522338  0.83085764     0.01000
C548        C  0.06512014  0.39820568  0.83745320    -0.21900
C549        C  0.02819286  0.39050656  0.83959664    -0.22100
C550        C  0.02394797  0.35292738  0.83451865     0.00900
H551        H  0.07787140  0.42419587  0.84457691     0.14700
H552        H  0.00718660  0.40951226  0.84888855     0.14700
O553        O  0.47818018  0.28214070  0.71135945    -0.72500
O554        O  0.47818091  0.23364389  0.80435542    -0.72600
O555        O  0.47816992  0.21139406  0.73360735    -0.72600
O556        O  0.47818972  0.30439102  0.78210717    -0.72700
O557        O  0.41993051  0.29492221  0.79638422    -0.72600
O558        O  0.41990987  0.22087974  0.71934430    -0.72600
O559        O  0.41991769  0.21938153  0.79488436    -0.72600
O560        O  0.41992453  0.29641873  0.72084457    -0.72600
Ni561      Ni  0.48035436  0.25789200  0.75785733     1.25400
Ni562      Ni  0.41650076  0.25790096  0.75786465     1.25400
C563        C  0.45085273  0.30265247  0.70460718     0.89600
C564        C  0.45084805  0.21313981  0.81111500     0.89600
C565        C  0.45083562  0.20464134  0.71310239     0.89600
C566        C  0.45086260  0.31115408  0.80261688     0.89800
N567        N  0.45791284  0.18772340  0.67802174    -0.01600
C568        C  0.43288771  0.18492620  0.65050199     0.01000
C569        C  0.45058938  0.17835535  0.61751131    -0.21900
C570        C  0.48751924  0.17621628  0.62520114    -0.22100
C571        C  0.49177179  0.18127199  0.66278290     0.00900
H572        H  0.43783391  0.17124259  0.59152025     0.14700
H573        H  0.00852250  0.16693733  0.60618563     0.14700
N574        N  0.45794018  0.33773114  0.68769081    -0.01600
C575        C  0.43292156  0.36525591  0.68489895     0.01000
C576        C  0.45062898  0.39824033  0.67830988    -0.21900
C577        C  0.48755587  0.39054117  0.67615433    -0.22100
C578        C  0.49180085  0.35296011  0.68121975     0.00900
H579        H  0.43787693  0.42423234  0.67119760     0.14700
H580        H  0.00856088  0.40954976  0.66686374     0.14700
N581        N  0.45793045  0.17806005  0.82803118    -0.01600
C582        C  0.43290909  0.15053696  0.83083115     0.01000
C583        C  0.45061608  0.11754987  0.83740469    -0.21900
C584        C  0.48754531  0.12524558  0.83954295    -0.22100
C585        C  0.49179185  0.16282707  0.83448296     0.00900
H586        H  0.43786451  0.09155779  0.84451928     0.14700
H587        H  0.00855284  0.10623428  0.84882146     0.14700
N588        N  0.45795477  0.32807903  0.83769185    -0.01600
C589        C  0.43294287  0.33088644  0.86522247     0.01000
C590        C  0.45066148  0.33746950  0.89820263    -0.21900
C591        C  0.48758772  0.33960478  0.89049626    -0.22100
C592        C  0.49182140  0.33453457  0.85291488     0.00900
H593        H  0.43791903  0.34458894  0.92419743     0.14700
H594        H  0.00860212  0.34888593  0.90949991     0.14700
C595        C  0.17389720  0.12154296  0.65582373     0.82100
N596        N  0.14497904  0.12715846  0.67887489    -0.76200
C597        C  0.12150859  0.15584712  0.67389018     0.84600
N598        N  0.12713451  0.17890776  0.64498196    -0.76100
C599        C  0.15582494  0.17392651  0.62151433     0.84700
N600        N  0.17888396  0.14501684  0.62713830    -0.77900
C601        C  0.39421141  0.84184052  0.35991205     0.82100
N602        N  0.37074037  0.83685796  0.38859996    -0.76200
C603        C  0.34183417  0.85992058  0.39422520     0.84600
N604        N  0.33685390  0.88861100  0.37075626    -0.76100
C605        C  0.35991021  0.89423047  0.34184330     0.84700
N606        N  0.38859489  0.87075597  0.33685744    -0.77900
C607        C  0.15585062  0.89419088  0.17393578     0.82100
N608        N  0.12716084  0.87071887  0.17890470    -0.76200
C609        C  0.12153794  0.84181931  0.15583195     0.84600
N610        N  0.14501467  0.83684309  0.12714796    -0.76100
C611        C  0.17393346  0.85989737  0.12154536     0.84700
N612        N  0.17891528  0.88857714  0.14502835    -0.77900
C613        C  0.39418445  0.65586278  0.34179872     0.82100
N614        N  0.38858948  0.67892189  0.37071507    -0.76200
C615        C  0.35990668  0.67395387  0.39419507     0.84600
N616        N  0.33682870  0.64505726  0.38857920    -0.76100
C617        C  0.34179147  0.62158009  0.35989330     0.84700
N618        N  0.37069648  0.62718620  0.33682400    -0.77900
C619        C  0.17392467  0.65586182  0.39416167     0.82100
N620        N  0.17889974  0.62717878  0.37068270    -0.76200
C621        C  0.15582904  0.62155903  0.34178066     0.84600
N622        N  0.12714179  0.64503204  0.33680869    -0.76100
C623        C  0.12153013  0.67394101  0.35987226     0.84700
N624        N  0.14501043  0.67891985  0.38855497    -0.77900
C625        C  0.17393799  0.89420865  0.35990503     0.82100
N626        N  0.17891332  0.87073220  0.38858979    -0.76200
C627        C  0.15585454  0.84181803  0.39419722     0.84600
N628        N  0.12717231  0.83683877  0.37071667    -0.76100
C629        C  0.12156013  0.85990191  0.34180721     0.84700
N630        N  0.14503493  0.88858941  0.33683538    -0.77900
C631        C  0.39416283  0.67395909  0.15583243     0.82100
N632        N  0.37068000  0.67891867  0.12715038    -0.76200
C633        C  0.34178556  0.65583665  0.12154008     0.84600
N634        N  0.33682489  0.62715408  0.14502167    -0.76100
C635        C  0.35989125  0.62156033  0.17393219     0.84700
N636        N  0.38856672  0.64505098  0.17890115    -0.77900
O637        O  0.23363183  0.71136685  0.03753743    -0.72500
O638        O  0.28212276  0.80436911  0.03756458    -0.72600
O639        O  0.30437724  0.73362402  0.03755144    -0.72600
O640        O  0.21137771  0.78211134  0.03754942    -0.72700
O641        O  0.22084563  0.79637409  0.09581332    -0.72600
O642        O  0.29489032  0.71934195  0.09580657    -0.72600
O643        O  0.29638554  0.79488242  0.09582517    -0.72600
O644        O  0.21935125  0.72083274  0.09579650    -0.72600
Ni645      Ni  0.25787774  0.75786844  0.03537656     1.25400
Ni646      Ni  0.25786789  0.75785702  0.09923050     1.25400
C647        C  0.21312069  0.70460196  0.06486321     0.89600
C648        C  0.30262531  0.81112437  0.06490028     0.89600
C649        C  0.31112913  0.71311082  0.06487843     0.89600
C650        C  0.20461505  0.80261430  0.06488232     0.89800
N651        N  0.17804635  0.68767663  0.05776866    -0.01600
C652        C  0.15051452  0.68487026  0.08277936     0.01000
C653        C  0.11753661  0.67827839  0.06506012    -0.21900
C654        C  0.12524544  0.67613670  0.02813460    -0.22100
C655        C  0.16282593  0.68121226  0.02390216     0.00900
H656        H  0.09154209  0.67115809  0.07780268     0.14700
H657        H  0.10624422  0.66684981  0.00712054     0.14700
N658        N  0.18769421  0.83769164  0.05779852    -0.01600
C659        C  0.18489268  0.86521786  0.08281664     0.01000
C660        C  0.17830876  0.89820098  0.06510545    -0.21900
C661        C  0.17616590  0.89050024  0.02817754    -0.22100
C662        C  0.18123374  0.85291967  0.02393580     0.00900
H663        H  0.17119102  0.92419322  0.07785446     0.14700
H664        H  0.16688152  0.90950696  0.00716837     0.14700
N665        N  0.32804724  0.67803338  0.05779013    -0.01600
C666        C  0.33084095  0.65050773  0.08280829     0.01000
C667        C  0.33743537  0.61752512  0.06509999    -0.21900
C668        C  0.33959307  0.62522679  0.02817307    -0.22100
C669        C  0.33452330  0.66280739  0.02392919     0.00900
H670        H  0.34455094  0.59153380  0.07785176     0.14700
H671        H  0.34888761  0.60622067  0.00716774     0.14700
N672        N  0.33770161  0.82805216  0.05782453    -0.01600
C673        C  0.36522143  0.83085702  0.08284918     0.01000
C674        C  0.39820939  0.83743712  0.06514600    -0.21900
C675        C  0.39051824  0.83957373  0.02821609    -0.22100
C676        C  0.35293814  0.83450769  0.02396474     0.00900
H677        H  0.42419892  0.84455639  0.07790073     0.14700
H678        H  0.40953086  0.84885641  0.00721164     0.14700
O679        O  0.22086422  0.71936972  0.41991324    -0.72500
O680        O  0.29492033  0.79639902  0.41994283    -0.72600
O681        O  0.29640479  0.72085832  0.41993047    -0.72600
O682        O  0.21937884  0.79491066  0.41992737    -0.72700
O683        O  0.23364458  0.80437660  0.47819077    -0.72600
O684        O  0.28212186  0.71137090  0.47818521    -0.72600
O685        O  0.30438667  0.78211471  0.47820107    -0.72600
O686        O  0.21137989  0.73363333  0.47817374    -0.72600
Ni687      Ni  0.25789282  0.75788499  0.41650827     1.25400
Ni688      Ni  0.25788282  0.75787347  0.48036189     1.25400
C689        C  0.20462172  0.71313168  0.45083805     0.89600
C690        C  0.31115303  0.80262641  0.45087585     0.89600
C691        C  0.30263341  0.70461658  0.45085787     0.89600
C692        C  0.21314054  0.81114079  0.45085891     0.89800
N693        N  0.18768845  0.67805768  0.45791422    -0.01600
C694        C  0.18487937  0.65053617  0.43289150     0.01000
C695        C  0.17828884  0.61755097  0.45059686    -0.21900
C696        C  0.17615050  0.62524516  0.48752580    -0.22100
C697        C  0.18122607  0.66282439  0.49177448     0.00900
H698        H  0.17116511  0.59156192  0.43784349     0.14700
H699        H  0.16686211  0.60623659  0.00853124     0.14700
N700        N  0.17806386  0.82806215  0.45794441    -0.01600
C701        C  0.15053608  0.83086352  0.43292771     0.01000
C702        C  0.11755485  0.83745120  0.45064022    -0.21900
C703        C  0.12525821  0.83959662  0.48756746    -0.22100
C704        C  0.16283837  0.83452643  0.49180739     0.00900
H705        H  0.09156233  0.84456922  0.43789212     0.14700
H706        H  0.10625320  0.84888380  0.00857734     0.14700
N707        N  0.33770665  0.68768937  0.45794575    -0.01600
C708        C  0.36523368  0.68488965  0.43292972     0.01000
C709        C  0.39821162  0.67827835  0.45064041    -0.21900
C710        C  0.39050604  0.67611608  0.48756602    -0.22100
C711        C  0.35292760  0.68120054  0.49180680     0.00900
H712        H  0.42420116  0.67115522  0.43788990     0.14700
H713        H  0.40950654  0.66681241  0.00857176     0.14700
N714        N  0.32808428  0.83769817  0.45797093    -0.01600
C715        C  0.33089505  0.86523122  0.43296131     0.01000
C716        C  0.33749830  0.89820646  0.45068153    -0.21900
C717        C  0.33964307  0.89049461  0.48760636    -0.22100
C718        C  0.33455761  0.85291497  0.49183732     0.00900
H719        H  0.34462406  0.92419998  0.43793938     0.14700
H720        H  0.34893762  0.90949259  0.00862051     0.14700
O721        O  0.22083403  0.59582070  0.21934455    -0.72500
O722        O  0.29488200  0.59583409  0.29638025    -0.72600
O723        O  0.29637511  0.59582859  0.22084040    -0.72600
O724        O  0.21934279  0.59582476  0.29488498    -0.72700
O725        O  0.23362140  0.53756843  0.30436810    -0.72600
O726        O  0.28210962  0.53756602  0.21136795    -0.72600
O727        O  0.30436513  0.53757417  0.28211413    -0.72600
O728        O  0.21136429  0.53756119  0.23362221    -0.72600
Ni729      Ni  0.25785830  0.59924710  0.25786210     1.25400
Ni730      Ni  0.25786522  0.53539325  0.25786791     1.25400
C731        C  0.20459964  0.56488942  0.21311373     0.89600
C732        C  0.31112015  0.56490734  0.30261978     0.89600
C733        C  0.30261539  0.56489798  0.20460948     0.89600
C734        C  0.21311105  0.56489634  0.31112350     0.89800
N735        N  0.18766798  0.55779853  0.17804167    -0.01600
C736        C  0.18485233  0.58281131  0.15051206     0.01000
C737        C  0.17826543  0.56509269  0.11753273    -0.21900
C738        C  0.17613672  0.52816557  0.12523850    -0.22100
C739        C  0.18121392  0.52393127  0.16281900     0.00900
H740        H  0.17113996  0.57783525  0.09153934     0.14700
H741        H  0.16685442  0.50715064  0.10623602     0.14700
N742        N  0.33769546  0.55781419  0.18769527    -0.01600
C743        C  0.36521926  0.58283493  0.18489746     0.01000
C744        C  0.39820465  0.56512759  0.17831780    -0.21900
C745        C  0.39050677  0.52819875  0.17617287    -0.22100
C746        C  0.35292587  0.52395316  0.18123582     0.00900
H747        H  0.42419614  0.57787948  0.17120239     0.14700
H748        H  0.40951601  0.50719190  0.16688958     0.14700
N749        N  0.17803576  0.55780824  0.32804648    -0.01600
C750        C  0.15050819  0.58282399  0.33084175     0.01000
C751        C  0.11752756  0.56511223  0.33743756    -0.21900
C752        C  0.12523136  0.52818624  0.33959373    -0.22100
C753        C  0.16281145  0.52394585  0.33452207     0.00900
H754        H  0.09153535  0.57786132  0.34455322     0.14700
H755        H  0.10622694  0.50717886  0.34888778     0.14700
N756        N  0.32804141  0.55782794  0.33769875    -0.01600
C757        C  0.33083826  0.58285073  0.36522083     0.01000
C758        C  0.33742280  0.56514706  0.39820811    -0.21900
C759        C  0.33957070  0.52821859  0.39051423    -0.22100
C760        C  0.33450606  0.52396896  0.35293349     0.00900
H761        H  0.34453776  0.57790179  0.42419894     0.14700
H762        H  0.34885750  0.50721499  0.40952581     0.14700
O763        O  0.21936509  0.91993689  0.22085744    -0.72500
O764        O  0.29639299  0.91995334  0.29491454    -0.72600
O765        O  0.22085249  0.91994496  0.29639852    -0.72600
O766        O  0.29490504  0.91994752  0.21937249    -0.72700
O767        O  0.30437547  0.97820927  0.23364179    -0.72600
O768        O  0.21136994  0.97820103  0.28211828    -0.72600
O769        O  0.28211294  0.97821169  0.30438488    -0.72600
O770        O  0.23363304  0.97819697  0.21137657    -0.72600
Ni771      Ni  0.25787945  0.91652556  0.25788611     1.25400
Ni772      Ni  0.25787276  0.98037900  0.25788040     1.25400
C773        C  0.21312886  0.95086345  0.20461729     0.89600
C774        C  0.30262209  0.95088441  0.31114988     0.89600
C775        C  0.20461211  0.95087247  0.30262777     0.89600
C776        C  0.31113685  0.95087877  0.21313555     0.89800
N777        N  0.17805442  0.95794311  0.18768666    -0.01600
C778        C  0.15052972  0.93292303  0.18488368     0.01000
C779        C  0.11754656  0.95063057  0.17829120    -0.21900
C780        C  0.12524498  0.98755806  0.17614484    -0.22100
C781        C  0.16282448  0.99180361  0.18121803     0.00900
H782        H  0.09155574  0.93787875  0.17117144     0.14700
H783        H  0.10623788  0.50856393  0.16685385     0.14700
N784        N  0.32805758  0.95796492  0.17805832    -0.01600
C785        C  0.33085620  0.93294818  0.15053068     0.01000
C786        C  0.33745643  0.95065895  0.11755051    -0.21900
C787        C  0.33961373  0.98758533  0.12525510    -0.22100
C788        C  0.33453662  0.99182594  0.16283465     0.00900
H789        H  0.34457660  0.93790893  0.09155946     0.14700
H790        H  0.34891122  0.50859295  0.10625237     0.14700
N791        N  0.18768229  0.95795960  0.33770009    -0.01600
C792        C  0.18487753  0.93294361  0.36522734     0.01000
C793        C  0.17827560  0.95065570  0.39820654    -0.21900
C794        C  0.17612573  0.98758212  0.39050207    -0.22100
C795        C  0.18120671  0.99182242  0.35292275     0.00900
H796        H  0.17115252  0.93790691  0.42419735     0.14700
H797        H  0.16682974  0.50859005  0.40950404     0.14700
N798        N  0.33769325  0.95797613  0.32808293    -0.01600
C799        C  0.36522375  0.93296468  0.33089773     0.01000
C800        C  0.39819994  0.95068362  0.33749906    -0.21900
C801        C  0.39049116  0.98760939  0.33963812    -0.22100
C802        C  0.35291223  0.99184230  0.33455146     0.00900
H803        H  0.42419187  0.93794061  0.34462767     0.14700
H804        H  0.40948983  0.50862318  0.34893038     0.14700
C805        C  0.39418887  0.85992858  0.17395660     0.82100
N806        N  0.38857446  0.83685230  0.14505816    -0.76200
C807        C  0.35989311  0.84182027  0.12157584     0.84600
N808        N  0.33683153  0.87073315  0.12717510    -0.76100
C809        C  0.34180478  0.89421778  0.15585506     0.84700
N810        N  0.37071175  0.88861292  0.17892246    -0.77900
O811        O  0.09578916  0.71936648  0.22081168    -0.72500
O812        O  0.09581262  0.79639004  0.29487409    -0.72600
O813        O  0.09579949  0.72084846  0.29635414    -0.72600
O814        O  0.09579986  0.79490806  0.21933286    -0.72700
O815        O  0.03754535  0.80439244  0.23361562    -0.72600
O816        O  0.03753779  0.71138121  0.28208429    -0.72600
O817        O  0.03755316  0.78212234  0.30435593    -0.72600
O818        O  0.03753200  0.73365076  0.21134331    -0.72600
Ni819      Ni  0.09922051  0.75787769  0.25784268     1.25400
Ni820      Ni  0.03536781  0.75788694  0.25785001     1.25400
C821        C  0.06485752  0.71314024  0.20457636     0.89600
C822        C  0.06488728  0.80262555  0.31111591     0.89600
C823        C  0.06486841  0.70461611  0.30258935     0.89600
C824        C  0.06487300  0.81115041  0.21310554     0.89800
N825        N  0.05776335  0.67807048  0.18764038    -0.01600
C826        C  0.08277143  0.65053649  0.18482658     0.01000
C827        C  0.06504981  0.61756399  0.17821280    -0.21900
C828        C  0.02812616  0.62527848  0.17606429    -0.22100
C829        C  0.02389731  0.66285690  0.18115864     0.00900
H830        H  0.07779099  0.59157178  0.17108224     0.14700
H831        H  0.00711196  0.60628439  0.16676309     0.14700
N832        N  0.05778575  0.82808359  0.17803447    -0.01600
C833        C  0.08280119  0.83088925  0.15050717     0.01000
C834        C  0.06508997  0.83750412  0.11752993    -0.21900
C835        C  0.02816464  0.83966130  0.12523568    -0.22100
C836        C  0.02392439  0.83457114  0.16281378     0.00900
H837        H  0.07783974  0.84463074  0.09154064     0.14700
H838        H  0.00715810  0.84896633  0.10623600     0.14700
N839        N  0.05778224  0.68768937  0.33766401    -0.01600
C840        C  0.08279786  0.68488541  0.36519262     0.01000
C841        C  0.06508558  0.67828287  0.39817137    -0.21900
C842        C  0.02815964  0.67613054  0.39046557    -0.22100
C843        C  0.02392045  0.68121198  0.35288644     0.00900
H844        H  0.07783410  0.67115988  0.42416261     0.14700
H845        H  0.00715101  0.66683424  0.40946692     0.14700
N846        N  0.05780880  0.83769872  0.32804987     0.00400
C847        C  0.08282866  0.86522347  0.33085729     0.01000
C848        C  0.06512062  0.89820588  0.33745253    -0.21900
C849        C  0.02819333  0.89050693  0.33959594    -0.22100
C850        C  0.02394825  0.85292773  0.33451828     0.00900
H851        H  0.07787195  0.92419612  0.34457611     0.14700
H852        H  0.00718712  0.90951284  0.34888771     0.14700
O853        O  0.47818015  0.78214053  0.21135969    -0.72500
O854        O  0.47818110  0.73364382  0.30435569    -0.72600
O855        O  0.47816991  0.71139381  0.23360771    -0.72600
O856        O  0.47818983  0.80439083  0.28210731    -0.72700
O857        O  0.41993070  0.79492204  0.29638463    -0.72600
O858        O  0.41990988  0.72087958  0.21934472    -0.72600
O859        O  0.41991788  0.71938138  0.29488477    -0.72600
O860        O  0.41992449  0.79641854  0.22084486    -0.72600
Ni861      Ni  0.48035441  0.75789181  0.25785757     1.25400
Ni862      Ni  0.41650083  0.75790080  0.25786505     1.25400
C863        C  0.45085267  0.80265229  0.20460741     0.89600
C864        C  0.45084828  0.71313974  0.31111535     0.89600
C865        C  0.45083558  0.70464116  0.21310276     0.89600
C866        C  0.45086280  0.81115392  0.30261715     0.89800
N867        N  0.45791279  0.68772325  0.17802212    -0.01600
C868        C  0.43288769  0.68492606  0.15050229     0.01000
C869        C  0.45058940  0.67835470  0.11751175    -0.21900
C870        C  0.48751916  0.67621527  0.12520174    -0.22100
C871        C  0.49177171  0.68127131  0.16278342     0.00900
H872        H  0.43783393  0.67124179  0.09152070     0.14700
H873        H  0.00852227  0.66693744  0.10618597     0.14700
N874        N  0.45794006  0.83773092  0.18769090    -0.01600
C875        C  0.43292145  0.86525570  0.18489893     0.01000
C876        C  0.45062887  0.89824014  0.17830970    -0.21900
C877        C  0.48755579  0.89054088  0.17615411    -0.22100
C878        C  0.49180071  0.85295984  0.18121964     0.00900
H879        H  0.43787690  0.92423203  0.17119729     0.14700
H880        H  0.00856075  0.90954954  0.16686376     0.14700
N881        N  0.45793081  0.67806003  0.32803155    -0.01600
C882        C  0.43290953  0.65053687  0.33083160     0.01000
C883        C  0.45061665  0.61754994  0.33740538    -0.21900
C884        C  0.48754584  0.62524571  0.33954368    -0.22100
C885        C  0.49179223  0.66282720  0.33448348     0.00900
H886        H  0.43786511  0.59155775  0.34452019     0.14700
H887        H  0.00855298  0.60623435  0.34882194     0.14700
N888        N  0.45795512  0.82807897  0.33769204    -0.01600
C889        C  0.43294328  0.83088658  0.36522270     0.01000
C890        C  0.45066196  0.83747012  0.39820271    -0.21900
C891        C  0.48758814  0.83960552  0.39049625    -0.22100
C892        C  0.49182174  0.83453494  0.35291490     0.00900
H893        H  0.43791952  0.84458989  0.42419750     0.14700
H894        H  0.00860240  0.84888746  0.40949960     0.14700
C895        C  0.17389694  0.62154305  0.15582387     0.82100
N896        N  0.14497877  0.62715840  0.17887506    -0.76200
C897        C  0.12150822  0.65584700  0.17389039     0.84600
N898        N  0.12713400  0.67890766  0.14498218    -0.76100
C899        C  0.15582443  0.67392656  0.12151452     0.84700
N900        N  0.17888355  0.64501697  0.12713844    -0.77900
C901        C  0.39421100  0.84184060  0.85991203     0.82100
N902        N  0.37073990  0.83685810  0.88859991    -0.76200
C903        C  0.34183393  0.85992097  0.89422526     0.84600
N904        N  0.33685381  0.88861145  0.87075636    -0.76100
C905        C  0.35991006  0.89423076  0.84184334     0.84700
N906        N  0.38859464  0.87075615  0.83685747    -0.77900
C907        C  0.15585083  0.89419071  0.67393550     0.82100
N908        N  0.12716110  0.87071868  0.67890457    -0.76200
C909        C  0.12153816  0.84181908  0.65583190     0.84600
N910        N  0.14501487  0.83684277  0.62714788    -0.76100
C911        C  0.17393366  0.85989700  0.62154518     0.84700
N912        N  0.17891548  0.88857685  0.64502809    -0.77900
C913        C  0.39418393  0.65586295  0.84179857     0.82100
N914        N  0.38858908  0.67892212  0.87071491    -0.76200
C915        C  0.35990631  0.67395419  0.89419498     0.84600
N916        N  0.33682831  0.64505759  0.88857926    -0.76100
C917        C  0.34179102  0.62158035  0.85989341     0.84700
N918        N  0.37069594  0.62718640  0.83682400    -0.77900
C919        C  0.17392440  0.65586229  0.89416182     0.82100
N920        N  0.17889964  0.62717923  0.87068290    -0.76200
C921        C  0.15582901  0.62155931  0.84178084     0.84600
N922        N  0.12714166  0.64503220  0.83680883    -0.76100
C923        C  0.12152979  0.67394114  0.85987238     0.84700
N924        N  0.14501005  0.67892017  0.88855509    -0.77900
C925        C  0.17393761  0.89420874  0.85990505     0.82100
N926        N  0.17891296  0.87073236  0.88858985    -0.76200
C927        C  0.15585415  0.84181825  0.89419745     0.84600
N928        N  0.12717189  0.83683893  0.87071695    -0.76100
C929        C  0.12155965  0.85990201  0.84180748     0.84700
N930        N  0.14503441  0.88858953  0.83683553    -0.77900
C931        C  0.39416286  0.67395878  0.65583236     0.82100
N932        N  0.37067995  0.67891832  0.62715037    -0.76200
C933        C  0.34178557  0.65583620  0.62154011     0.84600
N934        N  0.33682500  0.62715367  0.64502174    -0.76100
C935        C  0.35989137  0.62156000  0.67393226     0.84700
N936        N  0.38856688  0.64505065  0.67890113    -0.77900
O937        O  0.23363217  0.71136647  0.53753729    -0.72500
O938        O  0.28212314  0.80436860  0.53756452    -0.72600
O939        O  0.30437760  0.73362356  0.53755137    -0.72600
O940        O  0.21137809  0.78211099  0.53754925    -0.72700
O941        O  0.22084587  0.79637373  0.59581318    -0.72600
O942        O  0.29489053  0.71934153  0.59580648    -0.72600
O943        O  0.29638589  0.79488198  0.59582514    -0.72600
O944        O  0.21935149  0.72083241  0.59579631    -0.72600
Ni945      Ni  0.25787810  0.75786802  0.53537645     1.25400
Ni946      Ni  0.25786814  0.75785665  0.59923038     1.25400
C947        C  0.21312101  0.70460156  0.56486304     0.89600
C948        C  0.30262565  0.81112390  0.56490024     0.89600
C949        C  0.31112937  0.71311033  0.56487836     0.89600
C950        C  0.20461534  0.80261392  0.56488214     0.89800
N951        N  0.17804677  0.68767606  0.55776849    -0.01600
C952        C  0.15051494  0.68486974  0.58277920     0.01000
C953        C  0.11753704  0.67827799  0.56505999    -0.21900
C954        C  0.12524577  0.67613635  0.52813448    -0.22100
C955        C  0.16282629  0.68121179  0.52390199     0.00900
H956        H  0.09154245  0.67115777  0.57780265     0.14700
H957        H  0.10624448  0.66684946  0.50712046     0.14700
N958        N  0.18769441  0.83769120  0.55779829    -0.01600
C959        C  0.18489276  0.86521743  0.58281640     0.01000
C960        C  0.17830890  0.89820049  0.56510516    -0.21900
C961        C  0.17616620  0.89049980  0.52817720    -0.22100
C962        C  0.18123410  0.85291919  0.52393553     0.00900
H963        H  0.17119120  0.92419280  0.57785416     0.14700
H964        H  0.16688195  0.90950643  0.50716808     0.14700
N965        N  0.32804725  0.67803274  0.55779009    -0.01600
C966        C  0.33084087  0.65050716  0.58280833     0.01000
C967        C  0.33743511  0.61752446  0.56510013    -0.21900
C968        C  0.33959302  0.62522596  0.52817315    -0.22100
C969        C  0.33452334  0.66280663  0.52392922     0.00900
H970        H  0.34455054  0.59153314  0.57785199     0.14700
H971        H  0.34888755  0.60621984  0.50716801     0.14700
N972        N  0.33770184  0.82805187  0.55782446    -0.01600
C973        C  0.36522163  0.83085694  0.58284913     0.01000
C974        C  0.39820950  0.83743710  0.56514588    -0.21900
C975        C  0.39051841  0.83957367  0.52821597    -0.22100
C976        C  0.35293833  0.83450742  0.52396467     0.00900
H977        H  0.42419907  0.84455654  0.57790063     0.14700
H978        H  0.40953095  0.84885639  0.50721155     0.14700
O979        O  0.22086386  0.71937039  0.91991335    -0.72500
O980        O  0.29492002  0.79639958  0.91994295    -0.72600
O981        O  0.29640442  0.72085887  0.91993038    -0.72600
O982        O  0.21937850  0.79491124  0.91992757    -0.72700
O983        O  0.23364427  0.80437709  0.97819098    -0.72600
O984        O  0.28212158  0.71137146  0.97818515    -0.72600
O985        O  0.30438635  0.78211520  0.97820118    -0.72600
O986        O  0.21137955  0.73363394  0.97817387    -0.72600
Ni987      Ni  0.25789248  0.75788560  0.91650836     1.25400
Ni988      Ni  0.25788251  0.75787400  0.98036199     1.25400
C989        C  0.20462136  0.71313231  0.95083816     0.89600
C990        C  0.31115271  0.80262693  0.95087597     0.89600
C991        C  0.30263310  0.70461712  0.95085779     0.89600
C992        C  0.21314019  0.81114128  0.95085915     0.89800
N993        N  0.18768809  0.67805830  0.95791435    -0.01600
C994        C  0.18487911  0.65053673  0.93289166     0.01000
C995        C  0.17828878  0.61755148  0.95059700    -0.21900
C996        C  0.17615041  0.62524570  0.98752595    -0.22100
C997        C  0.18122582  0.66282496  0.99177461     0.00900
H998        H  0.17116521  0.59156242  0.93784367     0.14700
H999        H  0.16686210  0.60623608  0.50853110     0.14700
N1000       N  0.17806351  0.82806256  0.95794467    -0.01600
C1001       C  0.15053572  0.83086385  0.93292798     0.01000
C1002       C  0.11755453  0.83745158  0.95064050    -0.21900
C1003       C  0.12525787  0.83959713  0.98756770    -0.22100
C1004       C  0.16283802  0.83452692  0.99180766     0.00900
H1005       H  0.09156197  0.84456959  0.93789236     0.14700
H1006       H  0.10625357  0.84888323  0.50857712     0.14700
N1007       N  0.33770637  0.68768992  0.95794564    -0.01600
C1008       C  0.36523337  0.68489012  0.93292958     0.01000
C1009       C  0.39821144  0.67827912  0.95064020    -0.21900
C1010       C  0.39050589  0.67611712  0.98756587    -0.22100
C1011       C  0.35292742  0.68120141  0.99180673     0.00900
H1012       H  0.42420092  0.67115609  0.93788972     0.14700
H1013       H  0.40950657  0.66681115  0.50857188     0.14700
N1014       N  0.32808400  0.83769867  0.95797104    -0.01600
C1015       C  0.33089497  0.86523169  0.93296141     0.01000
C1016       C  0.33749851  0.89820693  0.95068155    -0.21900
C1017       C  0.33964331  0.89049505  0.98760642    -0.22100
C1018       C  0.33455755  0.85291542  0.99183741     0.00900
H1019       H  0.34462440  0.92420031  0.93793941     0.14700
H1020       H  0.34893725  0.90949224  0.50862053     0.14700
O1021       O  0.22083374  0.59582049  0.71934467    -0.72500
O1022       O  0.29488168  0.59583414  0.79638034    -0.72600
O1023       O  0.29637481  0.59582852  0.72084049    -0.72600
O1024       O  0.21934254  0.59582474  0.79488508    -0.72700
O1025       O  0.23362118  0.53756843  0.80436824    -0.72600
O1026       O  0.28210935  0.53756595  0.71136808    -0.72600
O1027       O  0.30436496  0.53757422  0.78211434    -0.72600
O1028       O  0.21136410  0.53756101  0.73362244    -0.72600
Ni1029     Ni  0.25785800  0.59924703  0.75786219     1.25400
Ni1030     Ni  0.25786504  0.53539318  0.75786808     1.25400
C1031       C  0.20459937  0.56488920  0.71311393     0.89600
C1032       C  0.31111988  0.56490744  0.80261994     0.89600
C1033       C  0.30261515  0.56489788  0.70460961     0.89600
C1034       C  0.21311088  0.56489638  0.81112367     0.89800
N1035       N  0.18766763  0.55779822  0.67804190    -0.01600
C1036       C  0.18485202  0.58281091  0.65051221     0.01000
C1037       C  0.17826481  0.56509228  0.61753293    -0.21900
C1038       C  0.17613585  0.52816520  0.62523891    -0.22100
C1039       C  0.18121325  0.52393097  0.66281938     0.00900
H1040       H  0.17113934  0.57783477  0.59153964     0.14700
H1041       H  0.16685331  0.50715025  0.60623654     0.14700
N1042       N  0.33769529  0.55781400  0.68769555    -0.01600
C1043       C  0.36521922  0.58283462  0.68489767     0.01000
C1044       C  0.39820450  0.56512710  0.67831791    -0.21900
C1045       C  0.39050644  0.52819832  0.67617298    -0.22100
C1046       C  0.35292555  0.52395291  0.68123598     0.00900
H1047       H  0.42419602  0.57787884  0.67120235     0.14700
H1048       H  0.40951554  0.50719137  0.66688958     0.14700
N1049       N  0.17803571  0.55780839  0.82804691    -0.01600
C1050       C  0.15050815  0.58282417  0.83084216     0.01000
C1051       C  0.11752755  0.56511243  0.83743824    -0.21900
C1052       C  0.12523141  0.52818648  0.83959463    -0.22100
C1053       C  0.16281143  0.52394605  0.83452279     0.00900
H1054       H  0.09153536  0.57786152  0.84455389     0.14700
H1055       H  0.10622703  0.50717906  0.84888885     0.14700
N1056       N  0.32804114  0.55782822  0.83769892    -0.01600
C1057       C  0.33083784  0.58285102  0.86522098     0.01000
C1058       C  0.33742251  0.56514744  0.89820826    -0.21900
C1059       C  0.33957067  0.52821899  0.89051432    -0.22100
C1060       C  0.33450603  0.52396928  0.85293363     0.00900
H1061       H  0.34453741  0.57790224  0.92419904     0.14700
H1062       H  0.34885763  0.50721542  0.90952598     0.14700
O1063       O  0.21936487  0.91993700  0.72085743    -0.72500
O1064       O  0.29639289  0.91995352  0.79491436    -0.72600
O1065       O  0.22085241  0.91994502  0.79639848    -0.72600
O1066       O  0.29490492  0.91994765  0.71937238    -0.72700
O1067       O  0.30437518  0.97820945  0.73364162    -0.72600
O1068       O  0.21136961  0.97820108  0.78211813    -0.72600
O1069       O  0.28211263  0.97821183  0.80438474    -0.72600
O1070       O  0.23363278  0.97819707  0.71137641    -0.72600
Ni1071     Ni  0.25787932  0.91652563  0.75788602     1.25400
Ni1072     Ni  0.25787245  0.98037913  0.75788025     1.25400
C1073       C  0.21312868  0.95086350  0.70461715     0.89600
C1074       C  0.30262188  0.95088461  0.81114974     0.89600
C1075       C  0.20461190  0.95087248  0.80262767     0.89600
C1076       C  0.31113665  0.95087891  0.71313542     0.89800
N1077       N  0.17805437  0.95794308  0.68768626    -0.01600
C1078       C  0.15052977  0.93292290  0.68488306     0.01000
C1079       C  0.11754668  0.95063038  0.67829023    -0.21900
C1080       C  0.12524498  0.98755782  0.67614392    -0.22100
C1081       C  0.16282438  0.99180353  0.68121752     0.00900
H1082       H  0.09155580  0.93787843  0.67117030     0.14700
H1083       H  0.10623726  0.50856353  0.66685472     0.14700
N1084       N  0.32805739  0.95796504  0.67805820    -0.01600
C1085       C  0.33085608  0.93294823  0.65053060     0.01000
C1086       C  0.33745631  0.95065899  0.61755045    -0.21900
C1087       C  0.33961350  0.98758538  0.62525494    -0.22100
C1088       C  0.33453641  0.99182601  0.66283449     0.00900
H1089       H  0.34457651  0.93790891  0.59155934     0.14700
H1090       H  0.34891024  0.50859267  0.60625245     0.14700
N1091       N  0.18768209  0.95795965  0.83769998    -0.01600
C1092       C  0.18487734  0.93294366  0.86522725     0.01000
C1093       C  0.17827562  0.95065581  0.89820647    -0.21900
C1094       C  0.17612597  0.98758227  0.89050201    -0.22100
C1095       C  0.18120680  0.99182250  0.85292267     0.00900
H1096       H  0.17115256  0.93790709  0.92419730     0.14700
H1097       H  0.16683007  0.50859001  0.90950483     0.14700
N1098       N  0.33769304  0.95797639  0.82808283    -0.01600
C1099       C  0.36522357  0.93296498  0.83089769     0.01000
C1100       C  0.39819976  0.95068393  0.83749896    -0.21900
C1101       C  0.39049095  0.98760975  0.83963796    -0.22100
C1102       C  0.35291197  0.99184258  0.83455131     0.00900
H1103       H  0.42419166  0.93794097  0.84462758     0.14700
H1104       H  0.40948978  0.50862355  0.84893006     0.14700
C1105       C  0.39418901  0.85992887  0.67395653     0.82100
N1106       N  0.38857472  0.83685259  0.64505806    -0.76200
C1107       C  0.35989330  0.84182037  0.62157578     0.84600
N1108       N  0.33683163  0.87073318  0.62717505    -0.76100
C1109       C  0.34180478  0.89421786  0.65585502     0.84700
N1110       N  0.37071177  0.88861310  0.67892244    -0.77900
O1111       O  0.09578923  0.71936644  0.72081197    -0.72500
O1112       O  0.09581245  0.79639002  0.79487441    -0.72600
O1113       O  0.09579919  0.72084845  0.79635428    -0.72600
O1114       O  0.09580004  0.79490809  0.71933309    -0.72700
O1115       O  0.03754551  0.80439255  0.73361569    -0.72600
O1116       O  0.03753756  0.71138121  0.78208418    -0.72600
O1117       O  0.03755291  0.78212235  0.80435582    -0.72600
O1118       O  0.03753216  0.73365080  0.71134316    -0.72600
Ni1119     Ni  0.09922045  0.75787770  0.75784293     1.25400
Ni1120     Ni  0.03536775  0.75788699  0.75784990     1.25400
C1121       C  0.06485771  0.71314023  0.70457643     0.89600
C1122       C  0.06488701  0.80262549  0.81111607     0.89600
C1123       C  0.06486810  0.70461609  0.80258936     0.89600
C1124       C  0.06487321  0.81115045  0.71310567     0.89800
N1125       N  0.05776367  0.67807053  0.68764030    -0.01600
C1126       C  0.08277180  0.65053656  0.68482663     0.01000
C1127       C  0.06505019  0.61756405  0.67821296    -0.21900
C1128       C  0.02812655  0.62527842  0.67606451    -0.22100
C1129       C  0.02389769  0.66285688  0.68115859     0.00900
H1130       H  0.07779145  0.59157177  0.67108237     0.14700
H1131       H  0.00711235  0.60628424  0.66676346     0.14700
N1132       N  0.05778598  0.82808351  0.67803454    -0.01600
C1133       C  0.08280139  0.83088910  0.65050720     0.01000
C1134       C  0.06509016  0.83750406  0.61753000    -0.21900
C1135       C  0.02816486  0.83966141  0.62523582    -0.22100
C1136       C  0.02392462  0.83457118  0.66281390     0.00900
H1137       H  0.07783992  0.84463057  0.59154070     0.14700
H1138       H  0.00715835  0.84896654  0.60623616     0.14700
N1139       N  0.05778187  0.68768929  0.83766399    -0.01600
C1140       C  0.08279741  0.68488531  0.86519269     0.01000
C1141       C  0.06508502  0.67828249  0.89817133    -0.21900
C1142       C  0.02815911  0.67612994  0.89046541    -0.22100
C1143       C  0.02392010  0.68121156  0.85288628     0.00900
H1144       H  0.07783347  0.67115945  0.92416262     0.14700
H1145       H  0.00715048  0.66683348  0.90946659     0.14700
N1146       N  0.05780843  0.83769857  0.82805019     0.00400
C1147       C  0.08282815  0.86522343  0.83085769     0.01000
C1148       C  0.06512000  0.89820576  0.83745316    -0.21900
C1149       C  0.02819273  0.89050659  0.83959659    -0.22100
C1150       C  0.02394783  0.85292742  0.83451874     0.00900
H1151       H  0.07787121  0.92419598  0.84457673     0.14700
H1152       H  0.00718642  0.90951236  0.84888839     0.14700
O1153       O  0.47818013  0.78214070  0.71135964    -0.72500
O1154       O  0.47818084  0.73364381  0.80435562    -0.72600
O1155       O  0.47816984  0.71139390  0.73360758    -0.72600
O1156       O  0.47818957  0.80439098  0.78210733    -0.72700
O1157       O  0.41993036  0.79492215  0.79638442    -0.72600
O1158       O  0.41990982  0.72087968  0.71934444    -0.72600
O1159       O  0.41991763  0.71938140  0.79488450    -0.72600
O1160       O  0.41992443  0.79641867  0.72084469    -0.72600
Ni1161     Ni  0.48035428  0.75789191  0.75785752     1.25400
Ni1162     Ni  0.41650062  0.75790087  0.75786481     1.25400
C1163       C  0.45085269  0.80265248  0.70460737     0.89600
C1164       C  0.45084799  0.71313974  0.81111519     0.89600
C1165       C  0.45083554  0.70464126  0.71310256     0.89600
C1166       C  0.45086244  0.81115402  0.80261710     0.89800
N1167       N  0.45791281  0.68772339  0.67802190    -0.01600
C1168       C  0.43288765  0.68492606  0.65050215     0.01000
C1169       C  0.45058937  0.67835508  0.61751152    -0.21900
C1170       C  0.48751921  0.67621601  0.62520136    -0.22100
C1171       C  0.49177174  0.68127186  0.66278310     0.00900
H1172       H  0.43783390  0.67124216  0.59152045     0.14700
H1173       H  0.00852254  0.66693707  0.60618581     0.14700
N1174       N  0.45794013  0.83773116  0.68769098    -0.01600
C1175       C  0.43292156  0.86525596  0.68489907     0.01000
C1176       C  0.45062905  0.89824038  0.67831006    -0.21900
C1177       C  0.48755596  0.89054114  0.67615453    -0.22100
C1178       C  0.49180084  0.85296008  0.68121993     0.00900
H1179       H  0.43787709  0.92423237  0.67119774     0.14700
H1180       H  0.00856099  0.90954961  0.66686420     0.14700
N1181       N  0.45793035  0.67805999  0.82803137    -0.01600
C1182       C  0.43290897  0.65053695  0.83083130     0.01000
C1183       C  0.45061593  0.61754990  0.83740491    -0.21900
C1184       C  0.48754518  0.62524552  0.83954319    -0.22100
C1185       C  0.49179175  0.66282701  0.83448314     0.00900
H1186       H  0.43786432  0.59155782  0.84451958     0.14700
H1187       H  0.00855256  0.60623397  0.84882117     0.14700
N1188       N  0.45795470  0.82807889  0.83769212    -0.01600
C1189       C  0.43294281  0.83088641  0.86522274     0.01000
C1190       C  0.45066146  0.83746955  0.89820288    -0.21900
C1191       C  0.48758769  0.83960485  0.89049652    -0.22100
C1192       C  0.49182132  0.83453456  0.85291512     0.00900
H1193       H  0.43791901  0.84458906  0.92419771     0.14700
H1194       H  0.00860193  0.84888631  0.90949999     0.14700
C1195       C  0.17389703  0.62154275  0.65582392     0.82100
N1196       N  0.14497898  0.62715839  0.67887517    -0.76200
C1197       C  0.12150855  0.65584705  0.67389039     0.84600
N1198       N  0.12713438  0.67890754  0.64498205    -0.76100
C1199       C  0.15582481  0.67392624  0.62151441     0.84700
N1200       N  0.17888377  0.64501655  0.62713843    -0.77900
C1201       C  0.89421122  0.34184044  0.35991174     0.82100
N1202       N  0.87074022  0.33685789  0.38859971    -0.76200
C1203       C  0.84183417  0.35992063  0.39422511     0.84600
N1204       N  0.83685391  0.38861111  0.37075624    -0.76100
C1205       C  0.85991006  0.39423046  0.34184314     0.84700
N1206       N  0.88859465  0.37075591  0.33685715    -0.77900
C1207       C  0.65585072  0.39419097  0.17393544     0.82100
N1208       N  0.62716095  0.37071895  0.17890438    -0.76200
C1209       C  0.62153817  0.34181927  0.15583176     0.84600
N1210       N  0.64501502  0.33684293  0.12714787    -0.76100
C1211       C  0.67393377  0.35989726  0.12154522     0.84700
N1212       N  0.67891548  0.38857712  0.14502812    -0.77900
C1213       C  0.89418438  0.15586281  0.34179860     0.82100
N1214       N  0.88858943  0.17892207  0.37071484    -0.76200
C1215       C  0.85990672  0.17395409  0.39419494     0.84600
N1216       N  0.83682884  0.14505738  0.38857931    -0.76100
C1217       C  0.84179149  0.12158018  0.35989343     0.84700
N1218       N  0.87069642  0.12718623  0.33682403    -0.77900
C1219       C  0.67392470  0.15586197  0.39416150     0.82100
N1220       N  0.67889978  0.12717892  0.37068252    -0.76200
C1221       C  0.65582902  0.12155906  0.34178055     0.84600
N1222       N  0.62714173  0.14503205  0.33680863    -0.76100
C1223       C  0.62153011  0.17394107  0.35987214     0.84700
N1224       N  0.64501043  0.17891996  0.38855484    -0.77900
C1225       C  0.67393803  0.39420856  0.35990503     0.82100
N1226       N  0.67891328  0.37073209  0.38858978    -0.76200
C1227       C  0.65585443  0.34181799  0.39419723     0.84600
N1228       N  0.62717216  0.33683880  0.37071668    -0.76100
C1229       C  0.62156004  0.35990198  0.34180723     0.84700
N1230       N  0.64503495  0.38858939  0.33683538    -0.77900
C1231       C  0.89416295  0.17395874  0.15583230     0.82100
N1232       N  0.87068013  0.17891833  0.12715025    -0.76200
C1233       C  0.84178568  0.15583633  0.12153995     0.84600
N1234       N  0.83682505  0.12715375  0.14502151    -0.76100
C1235       C  0.85989131  0.12156004  0.17393210     0.84700
N1236       N  0.88856681  0.14505065  0.17890107    -0.77900
O1237       O  0.73363194  0.21136653  0.03753738    -0.72500
O1238       O  0.78212286  0.30436879  0.03756446    -0.72600
O1239       O  0.80437732  0.23362374  0.03755131    -0.72600
O1240       O  0.71137783  0.28211110  0.03754935    -0.72700
O1241       O  0.72084572  0.29637385  0.09581328    -0.72600
O1242       O  0.79489053  0.21934180  0.09580650    -0.72600
O1243       O  0.79638571  0.29488218  0.09582506    -0.72600
O1244       O  0.71935145  0.22083247  0.09579648    -0.72600
Ni1245     Ni  0.75787784  0.25786814  0.03537643     1.25400
Ni1246     Ni  0.75786805  0.25785682  0.09923045     1.25400
C1247       C  0.71312084  0.20460165  0.06486319     0.89600
C1248       C  0.80262539  0.31112412  0.06490015     0.89600
C1249       C  0.81112922  0.21311055  0.06487831     0.89600
C1250       C  0.70461521  0.30261409  0.06488222     0.89800
N1251       N  0.67804650  0.18767627  0.05776867    -0.01600
C1252       C  0.65051473  0.18486979  0.08277941     0.01000
C1253       C  0.61753675  0.17827799  0.06506027    -0.21900
C1254       C  0.62524546  0.17613639  0.02813472    -0.22100
C1255       C  0.66282597  0.18121196  0.02390219     0.00900
H1256       H  0.59154230  0.17115776  0.07780292     0.14700
H1257       H  0.60624417  0.16684956  0.00712073     0.14700
N1258       N  0.68769445  0.33769147  0.05779837    -0.01600
C1259       C  0.68489292  0.36521772  0.08281646     0.01000
C1260       C  0.67830901  0.39820079  0.06510522    -0.21900
C1261       C  0.67616614  0.39050009  0.02817731    -0.22100
C1262       C  0.68123394  0.35291949  0.02393565     0.00900
H1263       H  0.67119131  0.42419314  0.07785422     0.14700
H1264       H  0.66688181  0.40950675  0.00716817     0.14700
N1265       N  0.82804718  0.17803301  0.05779000    -0.01600
C1266       C  0.83084095  0.15050741  0.08280820     0.01000
C1267       C  0.83743529  0.11752475  0.06509996    -0.21900
C1268       C  0.83959302  0.12522630  0.02817302    -0.22100
C1269       C  0.83452322  0.16280693  0.02392910     0.00900
H1270       H  0.84455081  0.09153346  0.07785179     0.14700
H1271       H  0.84888752  0.10622015  0.00716780     0.14700
N1272       N  0.83770154  0.32805215  0.05782439    -0.01600
C1273       C  0.86522136  0.33085722  0.08284902     0.01000
C1274       C  0.89820920  0.33743763  0.06514578    -0.21900
C1275       C  0.89051802  0.33957421  0.02821588    -0.22100
C1276       C  0.85293798  0.33450781  0.02396458     0.00900
H1277       H  0.92419875  0.34455706  0.07790047     0.14700
H1278       H  0.90953049  0.34885700  0.00721141     0.14700
O1279       O  0.72086426  0.21936997  0.41991321    -0.72500
O1280       O  0.79492032  0.29639925  0.41994283    -0.72600
O1281       O  0.79640483  0.22085858  0.41993029    -0.72600
O1282       O  0.71937883  0.29491085  0.41992737    -0.72700
O1283       O  0.73364456  0.30437680  0.47819078    -0.72600
O1284       O  0.78212194  0.21137114  0.47818503    -0.72600
O1285       O  0.80438665  0.28211493  0.47820107    -0.72600
O1286       O  0.71137990  0.23363351  0.47817374    -0.72600
Ni1287     Ni  0.75789283  0.25788523  0.41650824     1.25400
Ni1288     Ni  0.75788283  0.25787369  0.48036186     1.25400
C1289       C  0.70462179  0.21313187  0.45083800     0.89600
C1290       C  0.81115304  0.30262661  0.45087584     0.89600
C1291       C  0.80263347  0.20461682  0.45085769     0.89600
C1292       C  0.71314050  0.31114097  0.45085891     0.89800
N1293       N  0.68768863  0.17805781  0.45791411    -0.01600
C1294       C  0.68487956  0.15053633  0.43289131     0.01000
C1295       C  0.67828915  0.11755113  0.45059662    -0.21900
C1296       C  0.67615092  0.12524519  0.48752561    -0.22100
C1297       C  0.68122636  0.16282446  0.49177434     0.00900
H1298       H  0.67116542  0.09156205  0.43784318     0.14700
H1299       H  0.66686205  0.10623629  0.00853122     0.14700
N1300       N  0.67806378  0.32806218  0.45794441    -0.01600
C1301       C  0.65053599  0.33086348  0.43292771     0.01000
C1302       C  0.61755480  0.33745110  0.45064023    -0.21900
C1303       C  0.62525811  0.33959656  0.48756745    -0.22100
C1304       C  0.66283826  0.33452640  0.49180739     0.00900
H1305       H  0.59156221  0.34456905  0.43789209     0.14700
H1306       H  0.60625332  0.34888378  0.00857726     0.14700
N1307       N  0.83770674  0.18768966  0.45794555    -0.01600
C1308       C  0.86523374  0.18489011  0.43292950     0.01000
C1309       C  0.89821177  0.17827915  0.45064012    -0.21900
C1310       C  0.89050622  0.17611694  0.48756576    -0.22100
C1311       C  0.85292778  0.18120116  0.49180664     0.00900
H1312       H  0.92420131  0.17115621  0.43788959     0.14700
H1313       H  0.90950646  0.16681172  0.00857172     0.14700
N1314       N  0.82808432  0.33769833  0.45797093    -0.01600
C1315       C  0.83089527  0.36523135  0.43296128     0.01000
C1316       C  0.83749879  0.39820653  0.45068144    -0.21900
C1317       C  0.83964357  0.39049476  0.48760632    -0.22100
C1318       C  0.83455781  0.35291511  0.49183730     0.00900
H1319       H  0.84462470  0.42420000  0.43793923     0.14700
H1320       H  0.84893679  0.40949262  0.00862025     0.14700
O1321       O  0.72083403  0.09582048  0.21934470    -0.72500
O1322       O  0.79488193  0.09583406  0.29638045    -0.72600
O1323       O  0.79637510  0.09582845  0.22084061    -0.72600
O1324       O  0.71934277  0.09582471  0.29488516    -0.72700
O1325       O  0.73362141  0.03756841  0.30436838    -0.72600
O1326       O  0.78210956  0.03756588  0.21136823    -0.72600
O1327       O  0.80436520  0.03757416  0.28211438    -0.72600
O1328       O  0.71136430  0.03756100  0.23362251    -0.72600
Ni1329     Ni  0.75785826  0.09924700  0.25786228     1.25400
Ni1330     Ni  0.75786524  0.03539317  0.25786820     1.25400
C1331       C  0.70459966  0.06488917  0.21311395     0.89600
C1332       C  0.81112014  0.06490734  0.30262003     0.89600
C1333       C  0.80261535  0.06489782  0.20460973     0.89600
C1334       C  0.71311104  0.06489631  0.31112371     0.89800
N1335       N  0.68766799  0.05779822  0.17804191    -0.01600
C1336       C  0.68485225  0.08281094  0.15051227     0.01000
C1337       C  0.67826509  0.06509233  0.11753301    -0.21900
C1338       C  0.67613619  0.02816519  0.12523887    -0.22100
C1339       C  0.68121364  0.02393096  0.16281939     0.00900
H1340       H  0.67113958  0.07783491  0.09153968     0.14700
H1341       H  0.66685369  0.00715034  0.10623651     0.14700
N1342       N  0.83769539  0.05781398  0.18769547    -0.01600
C1343       C  0.86521924  0.08283467  0.18489747     0.01000
C1344       C  0.89820450  0.06512723  0.17831751    -0.21900
C1345       C  0.89050649  0.02819843  0.17617259    -0.22100
C1346       C  0.85292565  0.02395291  0.18123580     0.00900
H1347       H  0.92419598  0.07787904  0.17120179     0.14700
H1348       H  0.90951558  0.00719151  0.16688906     0.14700
N1349       N  0.67803573  0.05780820  0.32804659    -0.01600
C1350       C  0.65050815  0.08282396  0.33084174     0.01000
C1351       C  0.61752753  0.06511218  0.33743760    -0.21900
C1352       C  0.62523137  0.02818619  0.33959399    -0.22100
C1353       C  0.66281145  0.02394583  0.33452239     0.00900
H1354       H  0.59153530  0.07786126  0.34455314     0.14700
H1355       H  0.60622701  0.00717880  0.34888807     0.14700
N1356       N  0.82804142  0.05782803  0.33769902    -0.01600
C1357       C  0.83083830  0.08285086  0.36522105     0.01000
C1358       C  0.83742285  0.06514731  0.39820837    -0.21900
C1359       C  0.83957085  0.02821883  0.39051454    -0.22100
C1360       C  0.83450613  0.02396909  0.35293383     0.00900
H1361       H  0.84453772  0.07790212  0.42419917     0.14700
H1362       H  0.84885774  0.00721531  0.40952618     0.14700
O1363       O  0.71936488  0.41993705  0.22085731    -0.72500
O1364       O  0.79639294  0.41995332  0.29491427    -0.72600
O1365       O  0.72085243  0.41994491  0.29639836    -0.72600
O1366       O  0.79490493  0.41994770  0.21937229    -0.72700
O1367       O  0.80437534  0.47820939  0.23364174    -0.72600
O1368       O  0.71136970  0.47820098  0.28211815    -0.72600
O1369       O  0.78211267  0.47821158  0.30438482    -0.72600
O1370       O  0.73363292  0.47819708  0.21137640    -0.72600
Ni1371     Ni  0.75787933  0.41652558  0.25788590     1.25400
Ni1372     Ni  0.75787255  0.48037901  0.25788030     1.25400
C1373       C  0.71312874  0.45086358  0.20461709     0.89600
C1374       C  0.80262194  0.45088436  0.31114972     0.89600
C1375       C  0.70461201  0.45087241  0.30262766     0.89600
C1376       C  0.81113679  0.45087891  0.21313548     0.89800
N1377       N  0.67805443  0.45794325  0.18768624    -0.01600
C1378       C  0.65052975  0.43292315  0.18488310     0.01000
C1379       C  0.61754668  0.45063070  0.17829037    -0.21900
C1380       C  0.62524502  0.48755816  0.17614401    -0.22100
C1381       C  0.66282449  0.49180371  0.18121754     0.00900
H1382       H  0.59155582  0.43787876  0.17117042     0.14700
H1383       H  0.60623758  0.00856369  0.16685503     0.14700
N1384       N  0.82805764  0.45796505  0.17805833    -0.01600
C1385       C  0.83085631  0.43294826  0.15053071     0.01000
C1386       C  0.83745668  0.45065902  0.11755061    -0.21900
C1387       C  0.83961399  0.48758538  0.12525513    -0.22100
C1388       C  0.83453678  0.49182602  0.16283466     0.00900
H1389       H  0.84457687  0.43790891  0.09155948     0.14700
H1390       H  0.84891017  0.00859253  0.10625229     0.14700
N1391       N  0.68768232  0.45795951  0.33770006    -0.01600
C1392       C  0.68487773  0.43294350  0.36522731     0.01000
C1393       C  0.67827609  0.45065561  0.39820657    -0.21900
C1394       C  0.67612623  0.48758205  0.39050212    -0.22100
C1395       C  0.68120693  0.49182235  0.35292278     0.00900
H1396       H  0.67115312  0.43790685  0.42419742     0.14700
H1397       H  0.66682956  0.00858992  0.40950450     0.14700
N1398       N  0.83769314  0.45797611  0.32808274    -0.01600
C1399       C  0.86522364  0.43296467  0.33089760     0.01000
C1400       C  0.89819980  0.45068358  0.33749912    -0.21900
C1401       C  0.89049100  0.48760935  0.33963834    -0.22100
C1402       C  0.85291206  0.49184225  0.33455150     0.00900
H1403       H  0.92419170  0.43794055  0.34462778     0.14700
H1404       H  0.90948991  0.00862331  0.34893067     0.14700
C1405       C  0.89418884  0.35992858  0.17395652     0.82100
N1406       N  0.88857445  0.33685237  0.14505801    -0.76200
C1407       C  0.85989305  0.34182035  0.12157575     0.84600
N1408       N  0.83683145  0.37073320  0.12717511    -0.76100
C1409       C  0.84180473  0.39421781  0.15585511     0.84700
N1410       N  0.87071171  0.38861289  0.17892247    -0.77900
O1411       O  0.59578937  0.21936651  0.22081174    -0.72500
O1412       O  0.59581267  0.29639022  0.29487401    -0.72600
O1413       O  0.59579944  0.22084865  0.29635416    -0.72600
O1414       O  0.59580008  0.29490809  0.21933277    -0.72700
O1415       O  0.53754554  0.30439245  0.23361534    -0.72600
O1416       O  0.53753783  0.21138129  0.28208416    -0.72600
O1417       O  0.53755322  0.28212248  0.30435566    -0.72600
O1418       O  0.53753227  0.23365074  0.21134308    -0.72600
Ni1419     Ni  0.59922058  0.25787781  0.25784267     1.25400
Ni1420     Ni  0.53536795  0.25788699  0.25784977     1.25400
C1421       C  0.56485781  0.21314020  0.20457630     0.89600
C1422       C  0.56488729  0.30262573  0.31111572     0.89600
C1423       C  0.56486841  0.20461622  0.30258928     0.89600
C1424       C  0.56487320  0.31115036  0.21310530     0.89800
N1425       N  0.55776370  0.17807038  0.18764040    -0.01600
C1426       C  0.58277181  0.15053639  0.18482683     0.01000
C1427       C  0.56505024  0.11756382  0.17821340    -0.21900
C1428       C  0.52812655  0.12527816  0.17606501    -0.22100
C1429       C  0.52389768  0.16285666  0.18115892     0.00900
H1430       H  0.57779146  0.09157152  0.17108297     0.14700
H1431       H  0.50711239  0.10628400  0.16676413     0.14700
N1432       N  0.55778595  0.32808335  0.17803415    -0.01600
C1433       C  0.58280145  0.33088908  0.15050689     0.01000
C1434       C  0.56509025  0.33750382  0.11752961    -0.21900
C1435       C  0.52816489  0.33966096  0.12523530    -0.22100
C1436       C  0.52392458  0.33457083  0.16281341     0.00900
H1437       H  0.57784002  0.34463038  0.09154029     0.14700
H1438       H  0.50715840  0.34896596  0.10623560     0.14700
N1439       N  0.55778225  0.18768946  0.33766389    -0.01600
C1440       C  0.58279785  0.18488545  0.36519252     0.01000
C1441       C  0.56508553  0.17828280  0.39817117    -0.21900
C1442       C  0.52815961  0.17613045  0.39046537    -0.22100
C1443       C  0.52392047  0.18121196  0.35288626     0.00900
H1444       H  0.57783407  0.17115976  0.42416251     0.14700
H1445       H  0.50715094  0.16683413  0.40946666     0.14700
N1446       N  0.55780872  0.33769891  0.32804965     0.00400
C1447       C  0.58282857  0.36522362  0.33085727     0.01000
C1448       C  0.56512052  0.39820606  0.33745249    -0.21900
C1449       C  0.52819314  0.39050713  0.33959568    -0.22100
C1450       C  0.52394817  0.35292790  0.33451799     0.00900
H1451       H  0.57787179  0.42419627  0.34457606     0.14700
H1452       H  0.50718691  0.40951292  0.34888723     0.14700
O1453       O  0.97818007  0.28214031  0.21135927    -0.72500
O1454       O  0.97818102  0.23364379  0.30435554    -0.72600
O1455       O  0.97816993  0.21139359  0.23360752    -0.72600
O1456       O  0.97818971  0.30439077  0.28210698    -0.72700
O1457       O  0.91993056  0.29492192  0.29638422    -0.72600
O1458       O  0.91990992  0.22087927  0.21934437    -0.72600
O1459       O  0.91991788  0.21938115  0.29488440    -0.72600
O1460       O  0.91992445  0.29641837  0.22084453    -0.72600
Ni1461     Ni  0.98035436  0.25789168  0.25785729     1.25400
Ni1462     Ni  0.91650078  0.25790057  0.25786467     1.25400
C1463       C  0.95085262  0.30265214  0.20460707     0.89600
C1464       C  0.95084823  0.21313964  0.31111515     0.89600
C1465       C  0.95083566  0.20464087  0.21310253     0.89600
C1466       C  0.95086264  0.31115384  0.30261678     0.89800
N1467       N  0.95791293  0.18772295  0.17802192    -0.01600
C1468       C  0.93288782  0.18492572  0.15050214     0.01000
C1469       C  0.95058950  0.17835433  0.11751161    -0.21900
C1470       C  0.98751930  0.17621492  0.12520151    -0.22100
C1471       C  0.99177184  0.18127101  0.16278323     0.00900
H1472       H  0.93783393  0.17124133  0.09152062     0.14700
H1473       H  0.50852260  0.16693643  0.10618608     0.14700
N1474       N  0.95794003  0.33773084  0.18769070    -0.01600
C1475       C  0.93292141  0.36525563  0.18489890     0.01000
C1476       C  0.95062884  0.39824012  0.17830998    -0.21900
C1477       C  0.98755574  0.39054090  0.17615444    -0.22100
C1478       C  0.99180068  0.35295984  0.18121971     0.00900
H1479       H  0.93787686  0.42423213  0.17119783     0.14700
H1480       H  0.50856100  0.40954934  0.16686305     0.14700
N1481       N  0.95793072  0.17805997  0.32803148    -0.01600
C1482       C  0.93290942  0.15053685  0.33083146     0.01000
C1483       C  0.95061642  0.11754987  0.33740531    -0.21900
C1484       C  0.98754559  0.12524563  0.33954368    -0.22100
C1485       C  0.99179212  0.16282709  0.33448348     0.00900
H1486       H  0.93786482  0.09155777  0.34452007     0.14700
H1487       H  0.50855299  0.10623429  0.34882138     0.14700
N1488       N  0.95795493  0.32807890  0.33769170    -0.01600
C1489       C  0.93294311  0.33088652  0.36522237     0.01000
C1490       C  0.95066178  0.33747010  0.39820243    -0.21900
C1491       C  0.98758799  0.33960549  0.39049591    -0.22100
C1492       C  0.99182155  0.33453487  0.35291457     0.00900
H1493       H  0.93791939  0.34458985  0.42419710     0.14700
H1494       H  0.50860233  0.34888741  0.40949936     0.14700
C1495       C  0.67389711  0.12154275  0.15582405     0.82100
N1496       N  0.64497906  0.12715829  0.17887532    -0.76200
C1497       C  0.62150854  0.15584689  0.17389055     0.84600
N1498       N  0.62713427  0.17890739  0.14498221    -0.76100
C1499       C  0.65582469  0.17392622  0.12151457     0.84700
N1500       N  0.67888376  0.14501659  0.12713856    -0.77900
C1501       C  0.89421116  0.34184050  0.85991199     0.82100
N1502       N  0.87074003  0.33685793  0.88859985    -0.76200
C1503       C  0.84183393  0.35992069  0.89422506     0.84600
N1504       N  0.83685376  0.38861111  0.87075609    -0.76100
C1505       C  0.85991012  0.39423053  0.84184318     0.84700
N1506       N  0.88859481  0.37075605  0.83685746    -0.77900
C1507       C  0.65585069  0.39419072  0.67393547     0.82100
N1508       N  0.62716102  0.37071861  0.67890454    -0.76200
C1509       C  0.62153810  0.34181906  0.65583179     0.84600
N1510       N  0.64501479  0.33684284  0.62714776    -0.76100
C1511       C  0.67393356  0.35989712  0.62154508     0.84700
N1512       N  0.67891531  0.38857698  0.64502800    -0.77900
C1513       C  0.89418416  0.15586289  0.84179853     0.82100
N1514       N  0.88858924  0.17892200  0.87071491    -0.76200
C1515       C  0.85990646  0.17395399  0.89419494     0.84600
N1516       N  0.83682856  0.14505732  0.88857916    -0.76100
C1517       C  0.84179130  0.12158017  0.85989323     0.84700
N1518       N  0.87069617  0.12718637  0.83682382    -0.77900
C1519       C  0.67392444  0.15586211  0.89416174     0.82100
N1520       N  0.67889966  0.12717907  0.87068277    -0.76200
C1521       C  0.65582901  0.12155921  0.84178070     0.84600
N1522       N  0.62714169  0.14503214  0.83680870    -0.76100
C1523       C  0.62152991  0.17394109  0.85987224     0.84700
N1524       N  0.64501015  0.17892004  0.88855499    -0.77900
C1525       C  0.67393782  0.39420869  0.85990520     0.82100
N1526       N  0.67891314  0.37073223  0.88858995    -0.76200
C1527       C  0.65585425  0.34181816  0.89419748     0.84600
N1528       N  0.62717200  0.33683893  0.87071694    -0.76100
C1529       C  0.62155978  0.35990212  0.84180753     0.84700
N1530       N  0.64503459  0.38858962  0.83683570    -0.77900
C1531       C  0.89416293  0.17395885  0.65583221     0.82100
N1532       N  0.87068003  0.17891845  0.62715024    -0.76200
C1533       C  0.84178562  0.15583640  0.62153994     0.84600
N1534       N  0.83682503  0.12715381  0.64502151    -0.76100
C1535       C  0.85989141  0.12156006  0.67393200     0.84700
N1536       N  0.88856691  0.14505068  0.67890092    -0.77900
O1537       O  0.73363239  0.21136650  0.53753728    -0.72500
O1538       O  0.78212314  0.30436884  0.53756454    -0.72600
O1539       O  0.80437769  0.23362378  0.53755128    -0.72600
O1540       O  0.71137810  0.28211100  0.53754922    -0.72700
O1541       O  0.72084586  0.29637375  0.59581314    -0.72600
O1542       O  0.79489078  0.21934180  0.59580644    -0.72600
O1543       O  0.79638595  0.29488213  0.59582512    -0.72600
O1544       O  0.71935170  0.22083239  0.59579630    -0.72600
Ni1545     Ni  0.75787819  0.25786815  0.53537642     1.25400
Ni1546     Ni  0.75786827  0.25785676  0.59923036     1.25400
C1547       C  0.71312120  0.20460159  0.56486299     0.89600
C1548       C  0.80262568  0.31112408  0.56490025     0.89600
C1549       C  0.81112954  0.21311060  0.56487829     0.89600
C1550       C  0.70461530  0.30261392  0.56488209     0.89800
N1551       N  0.67804684  0.18767627  0.55776835    -0.01600
C1552       C  0.65051499  0.18486988  0.58277901     0.01000
C1553       C  0.61753705  0.17827792  0.56505982    -0.21900
C1554       C  0.62524590  0.17613609  0.52813428    -0.22100
C1555       C  0.66282643  0.18121174  0.52390186     0.00900
H1556       H  0.59154259  0.17115771  0.57780240     0.14700
H1557       H  0.60624477  0.16684910  0.50712029     0.14700
N1558       N  0.68769436  0.33769124  0.55779826    -0.01600
C1559       C  0.68489266  0.36521751  0.58281631     0.01000
C1560       C  0.67830864  0.39820058  0.56510506    -0.21900
C1561       C  0.67616587  0.39049981  0.52817713    -0.22100
C1562       C  0.68123389  0.35291922  0.52393550     0.00900
H1563       H  0.67119087  0.42419284  0.57785400     0.14700
H1564       H  0.66688152  0.40950642  0.50716798     0.14700
N1565       N  0.82804745  0.17803307  0.55778997    -0.01600
C1566       C  0.83084106  0.15050743  0.58280816     0.01000
C1567       C  0.83743563  0.11752484  0.56509989    -0.21900
C1568       C  0.83959369  0.12522647  0.52817295    -0.22100
C1569       C  0.83452375  0.16280709  0.52392909     0.00900
H1570       H  0.84455113  0.09153349  0.57785170     0.14700
H1571       H  0.84888840  0.10622050  0.50716777     0.14700
N1572       N  0.83770189  0.32805203  0.55782449    -0.01600
C1573       C  0.86522163  0.33085713  0.58284918     0.01000
C1574       C  0.89820958  0.33743727  0.56514601    -0.21900
C1575       C  0.89051848  0.33957363  0.52821606    -0.22100
C1576       C  0.85293842  0.33450743  0.52396469     0.00900
H1577       H  0.92419907  0.34455663  0.57790074     0.14700
H1578       H  0.90953106  0.34885623  0.50721157     0.14700
O1579       O  0.72086386  0.21937006  0.91991336    -0.72500
O1580       O  0.79491998  0.29639930  0.91994284    -0.72600
O1581       O  0.79640439  0.22085853  0.91993037    -0.72600
O1582       O  0.71937849  0.29491093  0.91992757    -0.72700
O1583       O  0.73364434  0.30437684  0.97819094    -0.72600
O1584       O  0.78212164  0.21137118  0.97818517    -0.72600
O1585       O  0.80438645  0.28211499  0.97820106    -0.72600
O1586       O  0.71137960  0.23363362  0.97817388    -0.72600
Ni1587     Ni  0.75789246  0.25788529  0.91650836     1.25400
Ni1588     Ni  0.75788258  0.25787374  0.98036197     1.25400
C1589       C  0.70462140  0.21313198  0.95083818     0.89600
C1590       C  0.81115276  0.30262669  0.95087582     0.89600
C1591       C  0.80263311  0.20461680  0.95085779     0.89600
C1592       C  0.71314024  0.31114103  0.95085912     0.89800
N1593       N  0.68768809  0.17805801  0.95791435    -0.01600
C1594       C  0.68487902  0.15053648  0.93289162     0.01000
C1595       C  0.67828853  0.11755131  0.95059698    -0.21900
C1596       C  0.67615031  0.12524541  0.98752592    -0.22100
C1597       C  0.68122578  0.16282466  0.99177461     0.00900
H1598       H  0.67116481  0.09156218  0.93784357     0.14700
H1599       H  0.66686269  0.10623606  0.50853083     0.14700
N1600       N  0.67806356  0.32806235  0.95794465    -0.01600
C1601       C  0.65053577  0.33086367  0.93292797     0.01000
C1602       C  0.61755457  0.33745136  0.95064048    -0.21900
C1603       C  0.62525792  0.33959704  0.98756770    -0.22100
C1604       C  0.66283810  0.33452677  0.99180761     0.00900
H1605       H  0.59156199  0.34456935  0.93789235     0.14700
H1606       H  0.60625347  0.34888312  0.50857711     0.14700
N1607       N  0.83770638  0.18768955  0.95794559    -0.01600
C1608       C  0.86523341  0.18488985  0.93292957     0.01000
C1609       C  0.89821143  0.17827874  0.95064021    -0.21900
C1610       C  0.89050585  0.17611655  0.98756585    -0.22100
C1611       C  0.85292739  0.18120088  0.99180666     0.00900
H1612       H  0.92420091  0.17115571  0.93788973     0.14700
H1613       H  0.90950688  0.16681220  0.50857162     0.14700
N1614       N  0.82808394  0.33769848  0.95797083    -0.01600
C1615       C  0.83089472  0.36523146  0.93296114     0.01000
C1616       C  0.83749794  0.39820675  0.95068127    -0.21900
C1617       C  0.83964268  0.39049498  0.98760615    -0.22100
C1618       C  0.83455722  0.35291533  0.99183721     0.00900
H1619       H  0.84462371  0.42420022  0.93793907     0.14700
H1620       H  0.84893784  0.40949227  0.50862035     0.14700
O1621       O  0.72083398  0.09582071  0.71934456    -0.72500
O1622       O  0.79488192  0.09583413  0.79638025    -0.72600
O1623       O  0.79637508  0.09582858  0.72084043    -0.72600
O1624       O  0.71934274  0.09582483  0.79488503    -0.72700
O1625       O  0.73362131  0.03756850  0.80436819    -0.72600
O1626       O  0.78210949  0.03756602  0.71136807    -0.72600
O1627       O  0.80436501  0.03757419  0.78211422    -0.72600
O1628       O  0.71136423  0.03756121  0.73362233    -0.72600
Ni1629     Ni  0.75785823  0.09924716  0.75786211     1.25400
Ni1630     Ni  0.75786512  0.03539331  0.75786802     1.25400
C1631       C  0.70459959  0.06488938  0.71311381     0.89600
C1632       C  0.81112005  0.06490736  0.80261982     0.89600
C1633       C  0.80261532  0.06489792  0.70460957     0.89600
C1634       C  0.71311100  0.06489646  0.81112360     0.89800
N1635       N  0.68766791  0.05779846  0.67804177    -0.01600
C1636       C  0.68485228  0.08281119  0.65051213     0.01000
C1637       C  0.67826527  0.06509256  0.61753284    -0.21900
C1638       C  0.67613643  0.02816546  0.62523868    -0.22100
C1639       C  0.68121374  0.02393117  0.66281917     0.00900
H1640       H  0.67113986  0.07783510  0.59153943     0.14700
H1641       H  0.66685402  0.00715054  0.60623625     0.14700
N1642       N  0.83769536  0.05781404  0.68769533    -0.01600
C1643       C  0.86521927  0.08283465  0.68489739     0.01000
C1644       C  0.89820455  0.06512713  0.67831761    -0.21900
C1645       C  0.89050647  0.02819835  0.67617266    -0.22100
C1646       C  0.85292559  0.02395294  0.68123572     0.00900
H1647       H  0.92419608  0.07787888  0.67120204     0.14700
H1648       H  0.90951555  0.00719137  0.66688923     0.14700
N1649       N  0.67803576  0.05780840  0.82804665    -0.01600
C1650       C  0.65050818  0.08282415  0.83084188     0.01000
C1651       C  0.61752753  0.06511238  0.83743765    -0.21900
C1652       C  0.62523137  0.02818640  0.83959383    -0.22100
C1653       C  0.66281144  0.02394602  0.83452223     0.00900
H1654       H  0.59153529  0.07786141  0.84455318     0.14700
H1655       H  0.60622694  0.00717894  0.84888778     0.14700
N1656       N  0.82804138  0.05782800  0.83769878    -0.01600
C1657       C  0.83083828  0.08285079  0.86522082     0.01000
C1658       C  0.83742301  0.06514720  0.89820806    -0.21900
C1659       C  0.83957110  0.02821873  0.89051425    -0.22100
C1660       C  0.83450626  0.02396905  0.85293351     0.00900
H1661       H  0.84453789  0.07790205  0.92419892     0.14700
H1662       H  0.84885799  0.00721526  0.90952583     0.14700
O1663       O  0.71936471  0.41993693  0.72085747    -0.72500
O1664       O  0.79639279  0.41995331  0.79491441    -0.72600
O1665       O  0.72085219  0.41994493  0.79639857    -0.72600
O1666       O  0.79490462  0.41994760  0.71937235    -0.72700
O1667       O  0.80437511  0.47820930  0.73364175    -0.72600
O1668       O  0.71136954  0.47820098  0.78211831    -0.72600
O1669       O  0.78211256  0.47821157  0.80438493    -0.72600
O1670       O  0.73363266  0.47819701  0.71137657    -0.72600
Ni1671     Ni  0.75787911  0.41652553  0.75788607     1.25400
Ni1672     Ni  0.75787238  0.48037894  0.75788041     1.25400
C1673       C  0.71312852  0.45086346  0.70461725     0.89600
C1674       C  0.80262183  0.45088438  0.81114983     0.89600
C1675       C  0.70461182  0.45087243  0.80262786     0.89600
C1676       C  0.81113645  0.45087881  0.71313545     0.89800
N1677       N  0.67805418  0.45794307  0.68768645    -0.01600
C1678       C  0.65052958  0.43292288  0.68488322     0.01000
C1679       C  0.61754642  0.45063034  0.67829054    -0.21900
C1680       C  0.62524468  0.48755788  0.67614442    -0.22100
C1681       C  0.66282414  0.49180351  0.68121786     0.00900
H1682       H  0.59155567  0.43787844  0.67117061     0.14700
H1683       H  0.60623783  0.00856384  0.66685402     0.14700
N1684       N  0.82805722  0.45796497  0.67805827    -0.01600
C1685       C  0.83085601  0.43294818  0.65053064     0.01000
C1686       C  0.83745629  0.45065897  0.61755047    -0.21900
C1687       C  0.83961342  0.48758534  0.62525511    -0.22100
C1688       C  0.83453625  0.49182598  0.66283464     0.00900
H1689       H  0.84457651  0.43790897  0.59155942     0.14700
H1690       H  0.84891016  0.00859269  0.60625219     0.14700
N1691       N  0.68768225  0.45795962  0.83770030    -0.01600
C1692       C  0.68487761  0.43294355  0.86522750     0.01000
C1693       C  0.67827610  0.45065556  0.89820679    -0.21900
C1694       C  0.67612645  0.48758204  0.89050249    -0.22100
C1695       C  0.68120708  0.49182245  0.85292312     0.00900
H1696       H  0.67115315  0.43790667  0.92419762     0.14700
H1697       H  0.66682963  0.00859020  0.90950425     0.14700
N1698       N  0.83769308  0.45797616  0.82808278    -0.01600
C1699       C  0.86522360  0.43296475  0.83089757     0.01000
C1700       C  0.89819982  0.45068367  0.83749887    -0.21900
C1701       C  0.89049101  0.48760947  0.83963794    -0.22100
C1702       C  0.85291203  0.49184236  0.83455132     0.00900
H1703       H  0.92419171  0.43794069  0.84462736     0.14700
H1704       H  0.90948997  0.00862325  0.84893010     0.14700
C1705       C  0.89418893  0.35992881  0.67395662     0.82100
N1706       N  0.88857463  0.33685255  0.64505814    -0.76200
C1707       C  0.85989323  0.34182035  0.62157586     0.84600
N1708       N  0.83683148  0.37073309  0.62717517    -0.76100
C1709       C  0.84180470  0.39421781  0.65585509     0.84700
N1710       N  0.87071171  0.38861307  0.67892248    -0.77900
O1711       O  0.59578938  0.21936664  0.72081178    -0.72500
O1712       O  0.59581251  0.29639027  0.79487421    -0.72600
O1713       O  0.59579938  0.22084867  0.79635421    -0.72600
O1714       O  0.59580002  0.29490825  0.71933294    -0.72700
O1715       O  0.53754551  0.30439261  0.73361560    -0.72600
O1716       O  0.53753779  0.21138130  0.78208411    -0.72600
O1717       O  0.53755309  0.28212237  0.80435586    -0.72600
O1718       O  0.53753230  0.23365094  0.71134312    -0.72600
Ni1719     Ni  0.59922051  0.25787791  0.75784279     1.25400
Ni1720     Ni  0.53536791  0.25788706  0.75784988     1.25400
C1721       C  0.56485783  0.21314044  0.70457625     0.89600
C1722       C  0.56488712  0.30262566  0.81111598     0.89600
C1723       C  0.56486834  0.20461620  0.80258926     0.89600
C1724       C  0.56487316  0.31115053  0.71310551     0.89800
N1725       N  0.55776371  0.17807078  0.68764003    -0.01600
C1726       C  0.58277174  0.15053676  0.68482616     0.01000
C1727       C  0.56505004  0.11756434  0.67821232    -0.21900
C1728       C  0.52812644  0.12527882  0.67606383    -0.22100
C1729       C  0.52389765  0.16285723  0.68115823     0.00900
H1730       H  0.57779122  0.09157199  0.67108163     0.14700
H1731       H  0.50711218  0.10628478  0.66676255     0.14700
N1732       N  0.55778590  0.32808350  0.67803435    -0.01600
C1733       C  0.58280132  0.33088906  0.65050701     0.01000
C1734       C  0.56509011  0.33750407  0.61752980    -0.21900
C1735       C  0.52816480  0.33966164  0.62523564    -0.22100
C1736       C  0.52392458  0.33457139  0.66281373     0.00900
H1737       H  0.57783989  0.34463060  0.59154049     0.14700
H1738       H  0.50715834  0.34896691  0.60623607     0.14700
N1739       N  0.55778209  0.18768936  0.83766383    -0.01600
C1740       C  0.58279761  0.18488537  0.86519253     0.01000
C1741       C  0.56508523  0.17828268  0.89817118    -0.21900
C1742       C  0.52815934  0.17613019  0.89046521    -0.22100
C1743       C  0.52392028  0.18121178  0.85288612     0.00900
H1744       H  0.57783365  0.17115970  0.92416248     0.14700
H1745       H  0.50715064  0.16683377  0.90946641     0.14700
N1746       N  0.55780852  0.33769879  0.82805002     0.00400
C1747       C  0.58282827  0.36522362  0.83085766     0.01000
C1748       C  0.56512014  0.39820598  0.83745321    -0.21900
C1749       C  0.52819284  0.39050682  0.83959662    -0.22100
C1750       C  0.52394795  0.35292764  0.83451866     0.00900
H1751       H  0.57787132  0.42419611  0.84457693     0.14700
H1752       H  0.50718656  0.40951250  0.84888854     0.14700
O1753       O  0.97818017  0.28214063  0.71135943    -0.72500
O1754       O  0.97818086  0.23364375  0.80435542    -0.72600
O1755       O  0.97816990  0.21139397  0.73360736    -0.72600
O1756       O  0.97818965  0.30439091  0.78210716    -0.72700
O1757       O  0.91993046  0.29492209  0.79638425    -0.72600
O1758       O  0.91990987  0.22087965  0.71934426    -0.72600
O1759       O  0.91991766  0.21938128  0.79488433    -0.72600
O1760       O  0.91992455  0.29641866  0.72084463    -0.72600
Ni1761     Ni  0.98035431  0.25789189  0.75785734     1.25400
Ni1762     Ni  0.91650072  0.25790082  0.75786466     1.25400
C1763       C  0.95085273  0.30265242  0.70460720     0.89600
C1764       C  0.95084803  0.21313965  0.81111500     0.89600
C1765       C  0.95083563  0.20464130  0.71310236     0.89600
C1766       C  0.95086255  0.31115398  0.80261691     0.89800
N1767       N  0.95791291  0.18772336  0.67802172    -0.01600
C1768       C  0.93288775  0.18492599  0.65050200     0.01000
C1769       C  0.95058938  0.17835481  0.61751141    -0.21900
C1770       C  0.98751923  0.17621571  0.62520117    -0.22100
C1771       C  0.99177182  0.18127173  0.66278290     0.00900
H1772       H  0.93783382  0.17124187  0.59152041     0.14700
H1773       H  0.50852261  0.16693810  0.60618558     0.14700
N1774       N  0.95794013  0.33773110  0.68769080    -0.01600
C1775       C  0.93292151  0.36525590  0.68489900     0.01000
C1776       C  0.95062895  0.39824031  0.67830986    -0.21900
C1777       C  0.98755582  0.39054108  0.67615423    -0.22100
C1778       C  0.99180079  0.35296004  0.68121965     0.00900
H1779       H  0.93787691  0.42423228  0.67119753     0.14700
H1780       H  0.50856088  0.40954985  0.66686392     0.14700
N1781       N  0.95793050  0.17805995  0.82803127    -0.01600
C1782       C  0.93290919  0.15053688  0.83083135     0.01000
C1783       C  0.95061624  0.11754988  0.83740511    -0.21900
C1784       C  0.98754546  0.12524557  0.83954325    -0.22100
C1785       C  0.99179193  0.16282705  0.83448305     0.00900
H1786       H  0.93786469  0.09155776  0.84451994     0.14700
H1787       H  0.50855264  0.10623417  0.84882108     0.14700
N1788       N  0.95795479  0.32807884  0.83769189    -0.01600
C1789       C  0.93294295  0.33088627  0.86522255     0.01000
C1790       C  0.95066161  0.33746926  0.89820268    -0.21900
C1791       C  0.98758778  0.33960451  0.89049626    -0.22100
C1792       C  0.99182145  0.33453430  0.85291490     0.00900
H1793       H  0.93791918  0.34458872  0.92419753     0.14700
H1794       H  0.50860199  0.34888613  0.90949990     0.14700
C1795       C  0.67389716  0.12154303  0.65582384     0.82100
N1796       N  0.64497898  0.12715858  0.67887493    -0.76200
C1797       C  0.62150854  0.15584723  0.67389010     0.84600
N1798       N  0.62713446  0.17890776  0.64498182    -0.76100
C1799       C  0.65582490  0.17392645  0.62151423     0.84700
N1800       N  0.67888395  0.14501683  0.62713834    -0.77900
C1801       C  0.89421139  0.84184052  0.35991202     0.82100
N1802       N  0.87074038  0.83685796  0.38859995    -0.76200
C1803       C  0.84183417  0.85992056  0.39422519     0.84600
N1804       N  0.83685387  0.88861099  0.37075627    -0.76100
C1805       C  0.85991018  0.89423049  0.34184333     0.84700
N1806       N  0.88859485  0.87075599  0.33685743    -0.77900
C1807       C  0.65585059  0.89419075  0.17393594     0.82100
N1808       N  0.62716080  0.87071874  0.17890477    -0.76200
C1809       C  0.62153793  0.84181923  0.15583194     0.84600
N1810       N  0.64501472  0.83684303  0.12714800    -0.76100
C1811       C  0.67393349  0.85989732  0.12154547     0.84700
N1812       N  0.67891527  0.88857707  0.14502851    -0.77900
C1813       C  0.89418424  0.65586278  0.34179877     0.82100
N1814       N  0.88858936  0.67892190  0.37071512    -0.76200
C1815       C  0.85990665  0.67395385  0.39419522     0.84600
N1816       N  0.83682867  0.64505724  0.38857945    -0.76100
C1817       C  0.84179133  0.62158010  0.35989351     0.84700
N1818       N  0.87069627  0.62718621  0.33682413    -0.77900
C1819       C  0.67392470  0.65586197  0.39416184     0.82100
N1820       N  0.67889975  0.62717887  0.37068292    -0.76200
C1821       C  0.65582911  0.62155910  0.34178084     0.84600
N1822       N  0.62714191  0.64503217  0.33680879    -0.76100
C1823       C  0.62153024  0.67394117  0.35987233     0.84700
N1824       N  0.64501052  0.67892004  0.38855506    -0.77900
C1825       C  0.67393812  0.89420857  0.35990519     0.82100
N1826       N  0.67891341  0.87073211  0.38858995    -0.76200
C1827       C  0.65585456  0.84181799  0.39419739     0.84600
N1828       N  0.62717234  0.83683876  0.37071684    -0.76100
C1829       C  0.62156016  0.85990195  0.34180742     0.84700
N1830       N  0.64503497  0.88858943  0.33683562    -0.77900
C1831       C  0.89416262  0.67395904  0.15583234     0.82100
N1832       N  0.87067975  0.67891862  0.12715035    -0.76200
C1833       C  0.84178540  0.65583651  0.12154002     0.84600
N1834       N  0.83682484  0.62715388  0.14502155    -0.76100
C1835       C  0.85989119  0.62156018  0.17393208     0.84700
N1836       N  0.88856662  0.64505087  0.17890104    -0.77900
O1837       O  0.73363188  0.71136678  0.03753757    -0.72500
O1838       O  0.78212271  0.80436910  0.03756461    -0.72600
O1839       O  0.80437721  0.73362393  0.03755150    -0.72600
O1840       O  0.71137768  0.78211134  0.03754950    -0.72700
O1841       O  0.72084559  0.79637406  0.09581340    -0.72600
O1842       O  0.79489040  0.71934191  0.09580666    -0.72600
O1843       O  0.79638557  0.79488237  0.09582517    -0.72600
O1844       O  0.71935122  0.72083278  0.09579659    -0.72600
Ni1845     Ni  0.75787772  0.75786841  0.03537662     1.25400
Ni1846     Ni  0.75786790  0.75785701  0.09923055     1.25400
C1847       C  0.71312069  0.70460195  0.06486330     0.89600
C1848       C  0.80262527  0.81112436  0.06490029     0.89600
C1849       C  0.81112913  0.71311074  0.06487847     0.89600
C1850       C  0.70461501  0.80261428  0.06488240     0.89800
N1851       N  0.67804633  0.68767664  0.05776876    -0.01600
C1852       C  0.65051453  0.68487025  0.08277948     0.01000
C1853       C  0.61753659  0.67827838  0.06506028    -0.21900
C1854       C  0.62524536  0.67613668  0.02813472    -0.22100
C1855       C  0.66282589  0.68121221  0.02390226     0.00900
H1856       H  0.59154209  0.67115810  0.07780285     0.14700
H1857       H  0.60624418  0.66684981  0.00712071     0.14700
N1858       N  0.68769419  0.83769163  0.05779861    -0.01600
C1859       C  0.68489270  0.86521784  0.08281676     0.01000
C1860       C  0.67830894  0.89820098  0.06510559    -0.21900
C1861       C  0.67616616  0.89050030  0.02817766    -0.22100
C1862       C  0.68123391  0.85291972  0.02393588     0.00900
H1863       H  0.67119126  0.92419324  0.07785461     0.14700
H1864       H  0.66688185  0.90950705  0.00716853     0.14700
N1865       N  0.82804715  0.67803324  0.05779011    -0.01600
C1866       C  0.83084087  0.65050759  0.08280823     0.01000
C1867       C  0.83743532  0.61752496  0.06509996    -0.21900
C1868       C  0.83959305  0.62522663  0.02817300    -0.22100
C1869       C  0.83452326  0.66280728  0.02392916     0.00900
H1870       H  0.84455081  0.59153367  0.07785173     0.14700
H1871       H  0.84888754  0.60622054  0.00716772     0.14700
N1872       N  0.83770150  0.82805224  0.05782453    -0.01600
C1873       C  0.86522133  0.83085716  0.08284917     0.01000
C1874       C  0.89820919  0.83743750  0.06514596    -0.21900
C1875       C  0.89051798  0.83957423  0.02821608    -0.22100
C1876       C  0.85293794  0.83450792  0.02396474     0.00900
H1877       H  0.92419874  0.84455684  0.07790068     0.14700
H1878       H  0.90953050  0.84885708  0.00721163     0.14700
O1879       O  0.72086418  0.71936976  0.41991350    -0.72500
O1880       O  0.79492036  0.79639892  0.41994285    -0.72600
O1881       O  0.79640473  0.72085830  0.41993055    -0.72600
O1882       O  0.71937882  0.79491064  0.41992749    -0.72700
O1883       O  0.73364467  0.80437666  0.47819083    -0.72600
O1884       O  0.78212180  0.71137088  0.47818526    -0.72600
O1885       O  0.80438669  0.78211468  0.47820110    -0.72600
O1886       O  0.71137982  0.73363348  0.47817394    -0.72600
Ni1887     Ni  0.75789278  0.75788496  0.41650843     1.25400
Ni1888     Ni  0.75788282  0.75787351  0.48036197     1.25400
C1889       C  0.70462165  0.71313178  0.45083828     0.89600
C1890       C  0.81115307  0.80262636  0.45087585     0.89600
C1891       C  0.80263338  0.70461657  0.45085795     0.89600
C1892       C  0.71314056  0.81114080  0.45085901     0.89800
N1893       N  0.68768837  0.67805781  0.45791445    -0.01600
C1894       C  0.68487932  0.65053630  0.43289170     0.01000
C1895       C  0.67828887  0.61755108  0.45059703    -0.21900
C1896       C  0.67615061  0.62524525  0.48752596    -0.22100
C1897       C  0.68122606  0.66282448  0.49177469     0.00900
H1898       H  0.67116516  0.59156201  0.43784366     0.14700
H1899       H  0.66686199  0.60623648  0.00853137     0.14700
N1900       N  0.67806387  0.82806210  0.45794452    -0.01600
C1901       C  0.65053610  0.83086335  0.43292784     0.01000
C1902       C  0.61755485  0.83745089  0.45064034    -0.21900
C1903       C  0.62525818  0.83959641  0.48756755    -0.22100
C1904       C  0.66283836  0.83452636  0.49180750     0.00900
H1905       H  0.59156230  0.84456890  0.43789220     0.14700
H1906       H  0.60625331  0.84888406  0.00857752     0.14700
N1907       N  0.83770667  0.68768943  0.45794584    -0.01600
C1908       C  0.86523370  0.68488965  0.43292983     0.01000
C1909       C  0.89821170  0.67827843  0.45064050    -0.21900
C1910       C  0.89050605  0.67611634  0.48756611    -0.22100
C1911       C  0.85292763  0.68120076  0.49180694     0.00900
H1912       H  0.92420121  0.67115531  0.43789008     0.14700
H1913       H  0.90950648  0.66681237  0.00857177     0.14700
N1914       N  0.82808426  0.83769815  0.45797090    -0.01600
C1915       C  0.83089506  0.86523121  0.43296128     0.01000
C1916       C  0.83749845  0.89820645  0.45068145    -0.21900
C1917       C  0.83964331  0.89049459  0.48760628    -0.22100
C1918       C  0.83455774  0.85291495  0.49183728     0.00900
H1919       H  0.84462421  0.92419992  0.43793928     0.14700
H1920       H  0.84893692  0.90949270  0.00862054     0.14700
O1921       O  0.72083408  0.59582060  0.21934464    -0.72500
O1922       O  0.79488194  0.59583409  0.29638041    -0.72600
O1923       O  0.79637513  0.59582849  0.22084059    -0.72600
O1924       O  0.71934276  0.59582476  0.29488509    -0.72700
O1925       O  0.73362138  0.53756845  0.30436829    -0.72600
O1926       O  0.78210959  0.53756594  0.21136819    -0.72600
O1927       O  0.80436508  0.53757416  0.28211435    -0.72600
O1928       O  0.71136429  0.53756111  0.23362237    -0.72600
Ni1929     Ni  0.75785828  0.59924706  0.25786224     1.25400
Ni1930     Ni  0.75786519  0.53539323  0.25786813     1.25400
C1931       C  0.70459968  0.56488932  0.21311385     0.89600
C1932       C  0.81112009  0.56490734  0.30261995     0.89600
C1933       C  0.80261538  0.56489786  0.20460968     0.89600
C1934       C  0.71311103  0.56489637  0.31112365     0.89800
N1935       N  0.68766809  0.55779845  0.17804175    -0.01600
C1936       C  0.68485256  0.58281127  0.15051218     0.01000
C1937       C  0.67826586  0.56509269  0.11753282    -0.21900
C1938       C  0.67613704  0.52816557  0.12523854    -0.22100
C1939       C  0.68121410  0.52393122  0.16281904     0.00900
H1940       H  0.67114056  0.57783530  0.09153942     0.14700
H1941       H  0.66685476  0.50715071  0.10623600     0.14700
N1942       N  0.83769540  0.55781408  0.18769534    -0.01600
C1943       C  0.86521919  0.58283480  0.18489745     0.01000
C1944       C  0.89820458  0.56512745  0.17831777    -0.21900
C1945       C  0.89050669  0.52819862  0.17617286    -0.22100
C1946       C  0.85292580  0.52395304  0.18123586     0.00900
H1947       H  0.92419604  0.57787933  0.17120225     0.14700
H1948       H  0.90951592  0.50719176  0.16688948     0.14700
N1949       N  0.67803575  0.55780827  0.32804662    -0.01600
C1950       C  0.65050820  0.58282403  0.33084197     0.01000
C1951       C  0.61752758  0.56511225  0.33743784    -0.21900
C1952       C  0.62523142  0.52818626  0.33959403    -0.22100
C1953       C  0.66281147  0.52394588  0.33452230     0.00900
H1954       H  0.59153538  0.57786131  0.34455351     0.14700
H1955       H  0.60622706  0.50717882  0.34888812     0.14700
N1956       N  0.82804136  0.55782796  0.33769892    -0.01600
C1957       C  0.83083811  0.58285076  0.36522098     0.01000
C1958       C  0.83742248  0.56514713  0.39820826    -0.21900
C1959       C  0.83957035  0.52821869  0.39051444    -0.22100
C1960       C  0.83450585  0.52396896  0.35293371     0.00900
H1961       H  0.84453731  0.57790195  0.42419916     0.14700
H1962       H  0.84885709  0.50721510  0.40952618     0.14700
O1963       O  0.71936500  0.91993683  0.22085757    -0.72500
O1964       O  0.79639307  0.91995334  0.29491451    -0.72600
O1965       O  0.72085248  0.91994493  0.29639860    -0.72600
O1966       O  0.79490495  0.91994748  0.21937251    -0.72700
O1967       O  0.80437544  0.97820922  0.23364191    -0.72600
O1968       O  0.71136977  0.97820100  0.28211834    -0.72600
O1969       O  0.78211283  0.97821164  0.30438501    -0.72600
O1970       O  0.73363298  0.97819692  0.21137666    -0.72600
Ni1971     Ni  0.75787942  0.91652546  0.25788617     1.25400
Ni1972     Ni  0.75787266  0.98037896  0.25788050     1.25400
C1973       C  0.71312878  0.95086338  0.20461740     0.89600
C1974       C  0.80262207  0.95088441  0.31114993     0.89600
C1975       C  0.70461205  0.95087241  0.30262787     0.89600
C1976       C  0.81113678  0.95087871  0.21313562     0.89800
N1977       N  0.67805435  0.95794301  0.18768677    -0.01600
C1978       C  0.65052967  0.93292288  0.18488388     0.01000
C1979       C  0.61754644  0.95063035  0.17829156    -0.21900
C1980       C  0.62524475  0.98755788  0.17614530    -0.22100
C1981       C  0.66282430  0.99180348  0.18121828     0.00900
H1982       H  0.59155565  0.93787846  0.17117188     0.14700
H1983       H  0.60623802  0.50856398  0.16685339     0.14700
N1984       N  0.82805751  0.95796487  0.17805841    -0.01600
C1985       C  0.83085612  0.93294807  0.15053078     0.01000
C1986       C  0.83745631  0.95065882  0.11755061    -0.21900
C1987       C  0.83961349  0.98758519  0.12525514    -0.22100
C1988       C  0.83453648  0.99182587  0.16283470     0.00900
H1989       H  0.84457646  0.93790873  0.09155948     0.14700
H1990       H  0.84891083  0.50859268  0.10625239     0.14700
N1991       N  0.68768236  0.95795953  0.33770026    -0.01600
C1992       C  0.68487771  0.93294349  0.36522751     0.01000
C1993       C  0.67827584  0.95065553  0.39820670    -0.21900
C1994       C  0.67612596  0.98758200  0.39050234    -0.22100
C1995       C  0.68120686  0.99182232  0.35292298     0.00900
H1996       H  0.67115275  0.93790664  0.42419753     0.14700
H1997       H  0.66682988  0.50859009  0.40950434     0.14700
N1998       N  0.83769322  0.95797617  0.32808301    -0.01600
C1999       C  0.86522372  0.93296473  0.33089786     0.01000
C2000       C  0.89819989  0.95068367  0.33749911    -0.21900
C2001       C  0.89049110  0.98760943  0.33963812    -0.22100
C2002       C  0.85291217  0.99184236  0.33455150     0.00900
H2003       H  0.92419187  0.93794064  0.34462764     0.14700
H2004       H  0.90948968  0.50862311  0.34893109     0.14700
C2005       C  0.89418880  0.85992855  0.17395667     0.82100
N2006       N  0.88857445  0.83685233  0.14505816    -0.76200
C2007       C  0.85989303  0.84182023  0.12157590     0.84600
N2008       N  0.83683139  0.87073303  0.12717525    -0.76100
C2009       C  0.84180465  0.89421768  0.15585521     0.84700
N2010       N  0.87071161  0.88861282  0.17892262    -0.77900
O2011       O  0.59578934  0.71936651  0.22081181    -0.72500
O2012       O  0.59581270  0.79639010  0.29487424    -0.72600
O2013       O  0.59579954  0.72084857  0.29635415    -0.72600
O2014       O  0.59580002  0.79490813  0.21933287    -0.72700
O2015       O  0.53754553  0.80439243  0.23361564    -0.72600
O2016       O  0.53753787  0.71138123  0.28208430    -0.72600
O2017       O  0.53755323  0.78212240  0.30435592    -0.72600
O2018       O  0.53753224  0.73365075  0.21134329    -0.72600
Ni2019     Ni  0.59922058  0.75787779  0.25784275     1.25400
Ni2020     Ni  0.53536796  0.75788695  0.25785000     1.25400
C2021       C  0.56485773  0.71314020  0.20457646     0.89600
C2022       C  0.56488731  0.80262560  0.31111598     0.89600
C2023       C  0.56486851  0.70461618  0.30258937     0.89600
C2024       C  0.56487313  0.81115040  0.21310551     0.89800
N2025       N  0.55776356  0.67807036  0.18764064    -0.01600
C2026       C  0.58277165  0.65053639  0.18482688     0.01000
C2027       C  0.56505004  0.61756383  0.17821338    -0.21900
C2028       C  0.52812638  0.62527823  0.17606499    -0.22100
C2029       C  0.52389753  0.66285671  0.18115905     0.00900
H2030       H  0.57779126  0.59157153  0.17108290     0.14700
H2031       H  0.50711215  0.60628403  0.16676403     0.14700
N2032       N  0.55778578  0.82808341  0.17803437    -0.01600
C2033       C  0.58280121  0.83088913  0.15050708     0.01000
C2034       C  0.56509002  0.83750386  0.11752978    -0.21900
C2035       C  0.52816468  0.83966104  0.12523559    -0.22100
C2036       C  0.52392441  0.83457095  0.16281370     0.00900
H2037       H  0.57783973  0.84463038  0.09154051     0.14700
H2038       H  0.50715814  0.84896608  0.10623585     0.14700
N2039       N  0.55778236  0.68768953  0.33766404    -0.01600
C2040       C  0.58279798  0.68488563  0.36519268     0.01000
C2041       C  0.56508563  0.67828317  0.39817141    -0.21900
C2042       C  0.52815968  0.67613085  0.39046558    -0.22100
C2043       C  0.52392059  0.68121216  0.35288645     0.00900
H2044       H  0.57783407  0.67116026  0.42416270     0.14700
H2045       H  0.50715101  0.66683467  0.40946688     0.14700
N2046       N  0.55780881  0.83769880  0.32804991     0.00400
C2047       C  0.58282867  0.86522351  0.33085750     0.01000
C2048       C  0.56512068  0.89820594  0.33745282    -0.21900
C2049       C  0.52819334  0.89050698  0.33959619    -0.22100
C2050       C  0.52394826  0.85292778  0.33451837     0.00900
H2051       H  0.57787201  0.92419610  0.34457639     0.14700
H2052       H  0.50718718  0.90951281  0.34888797     0.14700
O2053       O  0.97818007  0.78214046  0.21135958    -0.72500
O2054       O  0.97818092  0.73364379  0.30435568    -0.72600
O2055       O  0.97816968  0.71139367  0.23360770    -0.72600
O2056       O  0.97818972  0.80439080  0.28210726    -0.72700
O2057       O  0.91993059  0.79492201  0.29638460    -0.72600
O2058       O  0.91990966  0.72087951  0.21934470    -0.72600
O2059       O  0.91991769  0.71938134  0.29488479    -0.72600
O2060       O  0.91992445  0.79641848  0.22084486    -0.72600
Ni2061     Ni  0.98035430  0.75789174  0.25785752     1.25400
Ni2062     Ni  0.91650071  0.75790073  0.25786504     1.25400
C2063       C  0.95085261  0.80265226  0.20460737     0.89600
C2064       C  0.95084810  0.71313971  0.31111538     0.89600
C2065       C  0.95083537  0.70464109  0.21310273     0.89600
C2066       C  0.95086271  0.81115391  0.30261709     0.89800
N2067       N  0.95791255  0.68772333  0.17802200    -0.01600
C2068       C  0.93288743  0.68492627  0.15050222     0.01000
C2069       C  0.95058912  0.67835521  0.11751159    -0.21900
C2070       C  0.98751895  0.67621583  0.12520147    -0.22100
C2071       C  0.99177147  0.68127162  0.16278322     0.00900
H2072       H  0.93783363  0.67124241  0.09152054     0.14700
H2073       H  0.50852258  0.66693666  0.10618624     0.14700
N2074       N  0.95794000  0.83773094  0.18769090    -0.01600
C2075       C  0.93292139  0.86525571  0.18489894     0.01000
C2076       C  0.95062879  0.89824017  0.17830972    -0.21900
C2077       C  0.98755573  0.89054095  0.17615418    -0.22100
C2078       C  0.99180064  0.85295991  0.18121971     0.00900
H2079       H  0.93787683  0.92423208  0.17119744     0.14700
H2080       H  0.50856080  0.90954945  0.16686351     0.14700
N2081       N  0.95793058  0.67805998  0.32803157    -0.01600
C2082       C  0.93290930  0.65053684  0.33083160     0.01000
C2083       C  0.95061636  0.61754981  0.33740536    -0.21900
C2084       C  0.98754554  0.62524566  0.33954366    -0.22100
C2085       C  0.99179201  0.66282711  0.33448349     0.00900
H2086       H  0.93786489  0.59155774  0.34452006     0.14700
H2087       H  0.50855322  0.60623450  0.34882198     0.14700
N2088       N  0.95795505  0.82807895  0.33769199    -0.01600
C2089       C  0.93294327  0.83088658  0.36522266     0.01000
C2090       C  0.95066193  0.83747019  0.39820271    -0.21900
C2091       C  0.98758811  0.83960569  0.39049614    -0.22100
C2092       C  0.99182170  0.83453497  0.35291483     0.00900
H2093       H  0.93791955  0.84458988  0.42419740     0.14700
H2094       H  0.50860241  0.84888720  0.40949973     0.14700
C2095       C  0.67389710  0.62154303  0.15582398     0.82100
N2096       N  0.64497894  0.62715834  0.17887517    -0.76200
C2097       C  0.62150837  0.65584693  0.17389054     0.84600
N2098       N  0.62713410  0.67890764  0.14498235    -0.76100
C2099       C  0.65582451  0.67392657  0.12151465     0.84700
N2100       N  0.67888368  0.64501700  0.12713856    -0.77900
C2101       C  0.89421097  0.84184047  0.85991213     0.82100
N2102       N  0.87073989  0.83685813  0.88860006    -0.76200
C2103       C  0.84183388  0.85992098  0.89422527     0.84600
N2104       N  0.83685377  0.88861138  0.87075623    -0.76100
C2105       C  0.85991008  0.89423057  0.84184322     0.84700
N2106       N  0.88859462  0.87075590  0.83685745    -0.77900
C2107       C  0.65585070  0.89419081  0.67393556     0.82100
N2108       N  0.62716101  0.87071872  0.67890465    -0.76200
C2109       C  0.62153811  0.84181912  0.65583194     0.84600
N2110       N  0.64501481  0.83684285  0.62714791    -0.76100
C2111       C  0.67393355  0.85989716  0.62154519     0.84700
N2112       N  0.67891531  0.88857703  0.64502809    -0.77900
C2113       C  0.89418394  0.65586276  0.84179858     0.82100
N2114       N  0.88858905  0.67892194  0.87071489    -0.76200
C2115       C  0.85990633  0.67395397  0.89419502     0.84600
N2116       N  0.83682835  0.64505734  0.88857934    -0.76100
C2117       C  0.84179103  0.62158014  0.85989344     0.84700
N2118       N  0.87069595  0.62718620  0.83682403    -0.77900
C2119       C  0.67392438  0.65586223  0.89416193     0.82100
N2120       N  0.67889964  0.62717916  0.87068301    -0.76200
C2121       C  0.65582897  0.62155921  0.84178099     0.84600
N2122       N  0.62714160  0.64503206  0.83680897    -0.76100
C2123       C  0.62152978  0.67394106  0.85987245     0.84700
N2124       N  0.64501004  0.67892011  0.88855515    -0.77900
C2125       C  0.67393777  0.89420870  0.85990508     0.82100
N2126       N  0.67891311  0.87073234  0.88858991    -0.76200
C2127       C  0.65585423  0.84181829  0.89419757     0.84600
N2128       N  0.62717199  0.83683896  0.87071709    -0.76100
C2129       C  0.62155975  0.85990200  0.84180757     0.84700
N2130       N  0.64503456  0.88858948  0.83683558    -0.77900
C2131       C  0.89416291  0.67395869  0.65583243     0.82100
N2132       N  0.87068004  0.67891826  0.62715043    -0.76200
C2133       C  0.84178557  0.65583627  0.62154021     0.84600
N2134       N  0.83682494  0.62715374  0.64502182    -0.76100
C2135       C  0.85989128  0.62156000  0.67393233     0.84700
N2136       N  0.88856682  0.64505061  0.67890122    -0.77900
O2137       O  0.73363221  0.71136647  0.53753737    -0.72500
O2138       O  0.78212315  0.80436875  0.53756454    -0.72600
O2139       O  0.80437760  0.73362356  0.53755143    -0.72600
O2140       O  0.71137817  0.78211103  0.53754932    -0.72700
O2141       O  0.72084589  0.79637373  0.59581325    -0.72600
O2142       O  0.79489073  0.71934173  0.59580664    -0.72600
O2143       O  0.79638593  0.79488209  0.59582513    -0.72600
O2144       O  0.71935166  0.72083241  0.59579644    -0.72600
Ni2145     Ni  0.75787816  0.75786806  0.53537648     1.25400
Ni2146     Ni  0.75786826  0.75785672  0.59923043     1.25400
C2147       C  0.71312106  0.70460162  0.56486314     0.89600
C2148       C  0.80262567  0.81112403  0.56490025     0.89600
C2149       C  0.81112942  0.71311042  0.56487847     0.89600
C2150       C  0.70461539  0.80261395  0.56488221     0.89800
N2151       N  0.67804670  0.68767629  0.55776867    -0.01600
C2152       C  0.65051490  0.68486996  0.58277940     0.01000
C2153       C  0.61753696  0.67827805  0.56506025    -0.21900
C2154       C  0.62524572  0.67613632  0.52813473    -0.22100
C2155       C  0.66282621  0.68121185  0.52390219     0.00900
H2156       H  0.59154248  0.67115783  0.57780291     0.14700
H2157       H  0.60624441  0.66684939  0.50712072     0.14700
N2158       N  0.68769441  0.83769126  0.55779835    -0.01600
C2159       C  0.68489263  0.86521754  0.58281640     0.01000
C2160       C  0.67830867  0.89820058  0.56510507    -0.21900
C2161       C  0.67616608  0.89049979  0.52817713    -0.22100
C2162       C  0.68123405  0.85291921  0.52393557     0.00900
H2163       H  0.67119082  0.92419286  0.57785394     0.14700
H2164       H  0.66688176  0.90950637  0.50716791     0.14700
N2165       N  0.82804723  0.67803284  0.55779025    -0.01600
C2166       C  0.83084084  0.65050726  0.58280848     0.01000
C2167       C  0.83743527  0.61752462  0.56510025    -0.21900
C2168       C  0.83959319  0.62522621  0.52817333    -0.22100
C2169       C  0.83452343  0.66280680  0.52392937     0.00900
H2170       H  0.84455072  0.59153324  0.57785207     0.14700
H2171       H  0.84888772  0.60622008  0.50716807     0.14700
N2172       N  0.83770193  0.82805184  0.55782444    -0.01600
C2173       C  0.86522172  0.83085693  0.58284910     0.01000
C2174       C  0.89820961  0.83743709  0.56514586    -0.21900
C2175       C  0.89051847  0.83957360  0.52821597    -0.22100
C2176       C  0.85293841  0.83450733  0.52396464     0.00900
H2177       H  0.92419919  0.84455657  0.57790055     0.14700
H2178       H  0.90953099  0.84885637  0.50721149     0.14700
O2179       O  0.72086379  0.71937037  0.91991359    -0.72500
O2180       O  0.79491999  0.79639954  0.91994297    -0.72600
O2181       O  0.79640436  0.72085884  0.91993049    -0.72600
O2182       O  0.71937847  0.79491123  0.91992769    -0.72700
O2183       O  0.73364429  0.80437708  0.97819105    -0.72600
O2184       O  0.78212162  0.71137140  0.97818525    -0.72600
O2185       O  0.80438636  0.78211518  0.97820118    -0.72600
O2186       O  0.71137955  0.73363380  0.97817412    -0.72600
Ni2187     Ni  0.75789243  0.75788558  0.91650853     1.25400
Ni2188     Ni  0.75788252  0.75787395  0.98036209     1.25400
C2189       C  0.70462133  0.71313222  0.95083839     0.89600
C2190       C  0.81115273  0.80262690  0.95087596     0.89600
C2191       C  0.80263309  0.70461706  0.95085785     0.89600
C2192       C  0.71314019  0.81114129  0.95085925     0.89800
N2193       N  0.68768808  0.67805820  0.95791450    -0.01600
C2194       C  0.68487901  0.65053665  0.93289177     0.01000
C2195       C  0.67828854  0.61755147  0.95059713    -0.21900
C2196       C  0.67615029  0.62524561  0.98752607    -0.22100
C2197       C  0.68122576  0.66282487  0.99177475     0.00900
H2198       H  0.67116483  0.59156234  0.93784373     0.14700
H2199       H  0.66686229  0.60623609  0.50853128     0.14700
N2200       N  0.67806351  0.82806263  0.95794479    -0.01600
C2201       C  0.65053573  0.83086403  0.93292812     0.01000
C2202       C  0.61755451  0.83745188  0.95064063    -0.21900
C2203       C  0.62525791  0.83959741  0.98756785    -0.22100
C2204       C  0.66283806  0.83452710  0.99180775     0.00900
H2205       H  0.59156200  0.84456988  0.93789253     0.14700
H2206       H  0.60625348  0.84888306  0.50857720     0.14700
N2207       N  0.83770637  0.68768987  0.95794564    -0.01600
C2208       C  0.86523336  0.68489007  0.93292958     0.01000
C2209       C  0.89821141  0.67827911  0.95064023    -0.21900
C2210       C  0.89050586  0.67611712  0.98756590    -0.22100
C2211       C  0.85292739  0.68120137  0.99180674     0.00900
H2212       H  0.92420088  0.67115598  0.93788976     0.14700
H2213       H  0.90950664  0.66681150  0.50857208     0.14700
N2214       N  0.82808391  0.83769867  0.95797102    -0.01600
C2215       C  0.83089474  0.86523170  0.93296137     0.01000
C2216       C  0.83749810  0.89820692  0.95068155    -0.21900
C2217       C  0.83964275  0.89049512  0.98760643    -0.22100
C2218       C  0.83455719  0.85291547  0.99183741     0.00900
H2219       H  0.84462402  0.92420037  0.93793939     0.14700
H2220       H  0.84893751  0.90949224  0.50862042     0.14700
O2221       O  0.72083373  0.59582057  0.71934474    -0.72500
O2222       O  0.79488179  0.59583414  0.79638034    -0.72600
O2223       O  0.79637487  0.59582854  0.72084058    -0.72600
O2224       O  0.71934258  0.59582471  0.79488512    -0.72700
O2225       O  0.73362118  0.53756840  0.80436842    -0.72600
O2226       O  0.78210936  0.53756595  0.71136832    -0.72600
O2227       O  0.80436491  0.53757416  0.78211443    -0.72600
O2228       O  0.71136403  0.53756110  0.73362256    -0.72600
Ni2229     Ni  0.75785805  0.59924705  0.75786224     1.25400
Ni2230     Ni  0.75786500  0.53539318  0.75786826     1.25400
C2231       C  0.70459934  0.56488927  0.71311402     0.89600
C2232       C  0.81111992  0.56490737  0.80261998     0.89600
C2233       C  0.80261519  0.56489787  0.70460978     0.89600
C2234       C  0.71311088  0.56489635  0.81112376     0.89800
N2235       N  0.68766765  0.55779835  0.67804195    -0.01600
C2236       C  0.68485216  0.58281113  0.65051233     0.01000
C2237       C  0.67826528  0.56509260  0.61753295    -0.21900
C2238       C  0.67613637  0.52816546  0.62523872    -0.22100
C2239       C  0.68121355  0.52393112  0.66281926     0.00900
H2240       H  0.67113995  0.57783519  0.59153964     0.14700
H2241       H  0.66685402  0.50715066  0.60623620     0.14700
N2242       N  0.83769524  0.55781397  0.68769556    -0.01600
C2243       C  0.86521916  0.58283460  0.68489767     0.01000
C2244       C  0.89820443  0.56512710  0.67831789    -0.21900
C2245       C  0.89050639  0.52819826  0.67617292    -0.22100
C2246       C  0.85292546  0.52395289  0.68123592     0.00900
H2247       H  0.92419595  0.57787886  0.67120234     0.14700
H2248       H  0.90951542  0.50719141  0.66688953     0.14700
N2249       N  0.67803568  0.55780837  0.82804694    -0.01600
C2250       C  0.65050812  0.58282409  0.83084236     0.01000
C2251       C  0.61752754  0.56511232  0.83743849    -0.21900
C2252       C  0.62523141  0.52818630  0.83959470    -0.22100
C2253       C  0.66281147  0.52394600  0.83452280     0.00900
H2254       H  0.59153539  0.57786135  0.84455423     0.14700
H2255       H  0.60622719  0.50717890  0.84888881     0.14700
N2256       N  0.82804114  0.55782804  0.83769897    -0.01600
C2257       C  0.83083791  0.58285081  0.86522103     0.01000
C2258       C  0.83742252  0.56514721  0.89820832    -0.21900
C2259       C  0.83957059  0.52821877  0.89051439    -0.22100
C2260       C  0.83450595  0.52396906  0.85293369     0.00900
H2261       H  0.84453739  0.57790199  0.92419911     0.14700
H2262       H  0.84885753  0.50721518  0.90952606     0.14700
O2263       O  0.71936484  0.91993700  0.72085744    -0.72500
O2264       O  0.79639290  0.91995330  0.79491436    -0.72600
O2265       O  0.72085240  0.91994500  0.79639848    -0.72600
O2266       O  0.79490487  0.91994766  0.71937235    -0.72700
O2267       O  0.80437537  0.97820937  0.73364173    -0.72600
O2268       O  0.71136971  0.97820103  0.78211813    -0.72600
O2269       O  0.78211279  0.97821163  0.80438476    -0.72600
O2270       O  0.73363287  0.97819703  0.71137649    -0.72600
Ni2271     Ni  0.75787929  0.91652557  0.75788601     1.25400
Ni2272     Ni  0.75787259  0.98037900  0.75788031     1.25400
C2273       C  0.71312868  0.95086352  0.70461721     0.89600
C2274       C  0.80262202  0.95088443  0.81114969     0.89600
C2275       C  0.70461197  0.95087247  0.80262769     0.89600
C2276       C  0.81113672  0.95087887  0.71313545     0.89800
N2277       N  0.67805435  0.95794313  0.68768635    -0.01600
C2278       C  0.65052969  0.93292299  0.68488328     0.01000
C2279       C  0.61754650  0.95063048  0.67829074    -0.21900
C2280       C  0.62524487  0.98755798  0.67614447    -0.22100
C2281       C  0.66282434  0.99180361  0.68121783     0.00900
H2282       H  0.59155569  0.93787863  0.67117099     0.14700
H2283       H  0.60623767  0.50856370  0.66685399     0.14700
N2284       N  0.82805746  0.95796499  0.67805824    -0.01600
C2285       C  0.83085611  0.93294819  0.65053060     0.01000
C2286       C  0.83745627  0.95065900  0.61755048    -0.21900
C2287       C  0.83961344  0.98758537  0.62525496    -0.22100
C2288       C  0.83453640  0.99182599  0.66283454     0.00900
H2289       H  0.84457653  0.93790892  0.59155931     0.14700
H2290       H  0.84891020  0.50859276  0.60625235     0.14700
N2291       N  0.68768222  0.95795966  0.83770004    -0.01600
C2292       C  0.68487746  0.93294364  0.86522730     0.01000
C2293       C  0.67827573  0.95065574  0.89820650    -0.21900
C2294       C  0.67612594  0.98758219  0.89050209    -0.22100
C2295       C  0.68120683  0.99182247  0.85292275     0.00900
H2296       H  0.67115272  0.93790691  0.92419735     0.14700
H2297       H  0.66683030  0.50859003  0.90950480     0.14700
N2298       N  0.83769326  0.95797618  0.82808260    -0.01600
C2299       C  0.86522373  0.93296474  0.83089746     0.01000
C2300       C  0.89819998  0.95068364  0.83749866    -0.21900
C2301       C  0.89049124  0.98760948  0.83963764    -0.22100
C2302       C  0.85291226  0.99184237  0.83455107     0.00900
H2303       H  0.92419186  0.93794066  0.84462719     0.14700
H2304       H  0.90948977  0.50862330  0.84893041     0.14700
C2305       C  0.89418900  0.85992873  0.67395655     0.82100
N2306       N  0.88857471  0.83685249  0.64505805    -0.76200
C2307       C  0.85989335  0.84182035  0.62157572     0.84600
N2308       N  0.83683169  0.87073318  0.62717496    -0.76100
C2309       C  0.84180482  0.89421781  0.65585497     0.84700
N2310       N  0.87071177  0.88861299  0.67892243    -0.77900
O2311       O  0.59578926  0.71936666  0.72081201    -0.72500
O2312       O  0.59581240  0.79639016  0.79487450    -0.72600
O2313       O  0.59579923  0.72084857  0.79635442    -0.72600
O2314       O  0.59580001  0.79490826  0.71933321    -0.72700
O2315       O  0.53754545  0.80439262  0.73361579    -0.72600
O2316       O  0.53753762  0.71138123  0.78208430    -0.72600
O2317       O  0.53755294  0.78212237  0.80435610    -0.72600
O2318       O  0.53753215  0.73365096  0.71134338    -0.72600
Ni2319     Ni  0.59922043  0.75787787  0.75784304     1.25400
Ni2320     Ni  0.53536775  0.75788706  0.75785011     1.25400
C2321       C  0.56485772  0.71314046  0.70457651     0.89600
C2322       C  0.56488702  0.80262559  0.81111624     0.89600
C2323       C  0.56486819  0.70461611  0.80258945     0.89600
C2324       C  0.56487315  0.81115056  0.71310576     0.89800
N2325       N  0.55776361  0.67807079  0.68764032    -0.01600
C2326       C  0.58277170  0.65053679  0.68482665     0.01000
C2327       C  0.56505004  0.61756433  0.67821290    -0.21900
C2328       C  0.52812643  0.62527874  0.67606433    -0.22100
C2329       C  0.52389760  0.66285719  0.68115854     0.00900
H2330       H  0.57779128  0.59157199  0.67108228     0.14700
H2331       H  0.50711223  0.60628462  0.66676312     0.14700
N2332       N  0.55778593  0.82808358  0.67803460    -0.01600
C2333       C  0.58280134  0.83088910  0.65050724     0.01000
C2334       C  0.56509010  0.83750405  0.61753002    -0.21900
C2335       C  0.52816480  0.83966148  0.62523588    -0.22100
C2336       C  0.52392457  0.83457131  0.66281396     0.00900
H2337       H  0.57783984  0.84463053  0.59154072     0.14700
H2338       H  0.50715824  0.84896660  0.60623625     0.14700
N2339       N  0.55778195  0.68768927  0.83766404    -0.01600
C2340       C  0.58279746  0.68488533  0.86519274     0.01000
C2341       C  0.56508507  0.67828270  0.89817143    -0.21900
C2342       C  0.52815916  0.67613020  0.89046546    -0.22100
C2343       C  0.52392014  0.68121170  0.85288633     0.00900
H2344       H  0.57783351  0.67115973  0.92416268     0.14700
H2345       H  0.50715046  0.66683382  0.90946668     0.14700
N2346       N  0.55780841  0.83769871  0.82805027     0.00400
C2347       C  0.58282821  0.86522350  0.83085789     0.01000
C2348       C  0.56512013  0.89820582  0.83745346    -0.21900
C2349       C  0.52819278  0.89050679  0.83959683    -0.22100
C2350       C  0.52394787  0.85292758  0.83451883     0.00900
H2351       H  0.57787140  0.92419600  0.84457710     0.14700
H2352       H  0.50718662  0.90951247  0.84888866     0.14700
O2353       O  0.97818013  0.78214050  0.71135963    -0.72500
O2354       O  0.97818082  0.73364377  0.80435566    -0.72600
O2355       O  0.97816990  0.71139383  0.73360758    -0.72600
O2356       O  0.97818951  0.80439084  0.78210732    -0.72700
O2357       O  0.91993034  0.79492197  0.79638443    -0.72600
O2358       O  0.91990987  0.72087947  0.71934446    -0.72600
O2359       O  0.91991764  0.71938134  0.79488454    -0.72600
O2360       O  0.91992445  0.79641848  0.72084465    -0.72600
Ni2361     Ni  0.98035427  0.75789181  0.75785753     1.25400
Ni2362     Ni  0.91650068  0.75790072  0.75786479     1.25400
C2363       C  0.95085270  0.80265228  0.70460732     0.89600
C2364       C  0.95084797  0.71313966  0.81111522     0.89600
C2365       C  0.95083563  0.70464110  0.71310258     0.89600
C2366       C  0.95086241  0.81115384  0.80261711     0.89800
N2367       N  0.95791291  0.68772316  0.67802193    -0.01600
C2368       C  0.93288775  0.68492575  0.65050220     0.01000
C2369       C  0.95058938  0.67835458  0.61751159    -0.21900
C2370       C  0.98751921  0.67621549  0.62520139    -0.22100
C2371       C  0.99177182  0.68127152  0.66278310     0.00900
H2372       H  0.93783381  0.67124160  0.59152061     0.14700
H2373       H  0.50852260  0.66693769  0.60618584     0.14700
N2374       N  0.95794016  0.83773098  0.68769096    -0.01600
C2375       C  0.93292157  0.86525578  0.68489905     0.01000
C2376       C  0.95062903  0.89824024  0.67831007    -0.21900
C2377       C  0.98755596  0.89054099  0.67615455    -0.22100
C2378       C  0.99180086  0.85295992  0.68121989     0.00900
H2379       H  0.93787709  0.92423217  0.67119783     0.14700
H2380       H  0.50856101  0.90954971  0.66686411     0.14700
N2381       N  0.95793036  0.67805986  0.82803134    -0.01600
C2382       C  0.93290898  0.65053679  0.83083131     0.01000
C2383       C  0.95061598  0.61754969  0.83740486    -0.21900
C2384       C  0.98754523  0.62524535  0.83954302    -0.22100
C2385       C  0.99179175  0.66282686  0.83448306     0.00900
H2386       H  0.93786444  0.59155762  0.84451959     0.14700
H2387       H  0.50855246  0.60623420  0.84882137     0.14700
N2388       N  0.95795466  0.82807877  0.83769211    -0.01600
C2389       C  0.93294279  0.83088627  0.86522276     0.01000
C2390       C  0.95066146  0.83746950  0.89820286    -0.21900
C2391       C  0.98758767  0.83960482  0.89049643    -0.22100
C2392       C  0.99182130  0.83453442  0.85291507     0.00900
H2393       H  0.93791904  0.84458909  0.92419763     0.14700
H2394       H  0.50860193  0.84888622  0.90950011     0.14700
C2395       C  0.67389704  0.62154296  0.65582409     0.82100
N2396       N  0.64497892  0.62715854  0.67887528    -0.76200
C2397       C  0.62150851  0.65584725  0.67389055     0.84600
N2398       N  0.62713443  0.67890784  0.64498230    -0.76100
C2399       C  0.65582483  0.67392651  0.62151463     0.84700
N2400       N  0.67888379  0.64501680  0.62713862    -0.77900
loop_ 
_geom_bond_atom_site_label_1 
_geom_bond_atom_site_label_2 
_geom_bond_distance 
_geom_bond_site_symmetry_2 
_ccdc_geom_bond_type 
C1            N2   1.358       .  A
C1            N6   1.359       .  A
C1          C289   1.475       .  S
N2            C3   1.359       .  A
C3            N4   1.358       .  A
C3          C115   1.475       .  S
N4            C5   1.359       .  A
C5            N6   1.358       .  A
C5          C199   1.475       .  S
C7            N8   1.358       .  A
C7           N12   1.359       .  A
C7          C178   1.475       .  S
N8            C9   1.359       .  A
C9           N10   1.358       .  A
C9          C233   1.475       .  S
N10          C11   1.359       .  A
C11          N12   1.358       .  A
C11          C59   1.475       .  S
C13          N14   1.359       .  A
C13          N18   1.358       .  A
C13         C282   1.475       .  S
N14          C15   1.358       .  A
C15          N16   1.359       .  A
C15         C108   1.475       .  S
N16          C17   1.358       .  A
C17          N18   1.359       .  A
C17         C157   1.475       .  S
C19          N20   1.358       .  A
C19          N24   1.359       .  A
C19          C94   1.475       .  S
N20          C21   1.359       .  A
C21          N22   1.358       .  A
C21         C150   1.475       .  S
N22          C23   1.359       .  A
C23          N24   1.358       .  A
C23         C240   1.475       .  S
C25          N26   1.358       .  A
C25          N30   1.359       .  A
C25         C192   1.475       .  S
N26          C27   1.359       .  A
C27          N28   1.358       .  A
C27         C101   1.475       .  S
N28          C29   1.359       .  A
C29          N30   1.358       .  A
C29         C247   1.475       .  S
C31          N32   1.358       .  A
C31          N36   1.359       .  A
C31         C268   1.475       .  S
N32          C33   1.359       .  A
C33          N34   1.358       .  A
C33          C66   1.475       .  S
N34          C35   1.359       .  A
C35          N36   1.358       .  A
C35         C143   1.475       .  S
O37         Ni45   1.906       .  S
O37          C47   1.265       .  A
O38         Ni45   1.906       .  S
O38          C48   1.265       .  A
O39         Ni45   1.906       .  S
O39          C49   1.265       .  A
O40         Ni45   1.906       .  S
O40          C50   1.265       .  A
O41         Ni46   1.944       .  S
O41          C50   1.289       .  A
O42         Ni46   1.944       .  S
O42          C49   1.289       .  A
O43         Ni46   1.944       .  S
O43          C48   1.289       .  A
O44         Ni46   1.944       .  S
O44          C47   1.289       .  A
Ni45        Ni46   2.319       .  S
C47          N51   1.438       .  S
C48          N72   1.438       .  S
C49          N65   1.438       .  S
C50          N58   1.438       .  S
N51          C55   1.369       .  A
N51          C52   1.355       .  A
C52         C299   1.475       .  S
C52          C53   1.381       .  A
C53          C54   1.372       .  A
C53          H56   1.083       .  S
C54          C55   1.386       .  A
C54          H57   1.083       .  S
C55         C397   1.501   1_554  S
N58          C62   1.369       .  A
N58          C59   1.355       .  A
C59          C60   1.381       .  A
C60          C61   1.372       .  A
C60          H63   1.083       .  S
C61          C62   1.386       .  A
C61          H64   1.083       .  S
C62         C404   1.501   1_554  S
N65          C69   1.369       .  A
N65          C66   1.355       .  A
C66          C67   1.381       .  A
C67          C68   1.372       .  A
C67          H70   1.083       .  S
C68          C69   1.386       .  A
C68          H71   1.083       .  S
C69         C411   1.501   1_554  S
N72          C76   1.369       .  A
N72          C73   1.355       .  A
C73         C207   1.475       .  S
C73          C74   1.381       .  A
C74          C75   1.372       .  A
C74          H77   1.083       .  S
C75          C76   1.386       .  A
C75          H78   1.083       .  S
C76         C418   1.501   1_554  S
O79         Ni87   1.944       .  S
O79          C89   1.289       .  A
O80         Ni87   1.944       .  S
O80          C90   1.289       .  A
O81         Ni87   1.944       .  S
O81          C91   1.289       .  A
O82         Ni87   1.944       .  S
O82          C92   1.289       .  A
O83         Ni88   1.906       .  S
O83          C92   1.265       .  A
O84         Ni88   1.906       .  S
O84          C91   1.265       .  A
O85         Ni88   1.906       .  S
O85          C90   1.265       .  A
O86         Ni88   1.906       .  S
O86          C89   1.265       .  A
Ni87        Ni88   2.319       .  S
C89          N93   1.438       .  S
C90         N114   1.438       .  S
C91         N107   1.438       .  S
C92         N100   1.438       .  S
N93          C97   1.369       .  A
N93          C94   1.355       .  A
C94          C95   1.381       .  A
C95          C96   1.372       .  A
C95          H98   1.083       .  S
C96          C97   1.386       .  A
C96         H399   1.083       .  S
C97         C355   1.501       .  S
H99         C396   1.083   1_554  S
N100        C104   1.369       .  A
N100        C101   1.355       .  A
C101        C102   1.381       .  A
C102        C103   1.372       .  A
C102        H105   1.083       .  S
C103        C104   1.386       .  A
C103        H406   1.083       .  S
C104        C362   1.501       .  S
H106        C403   1.083   1_554  S
N107        C111   1.369       .  A
N107        C108   1.355       .  A
C108        C109   1.381       .  A
C109        C110   1.372       .  A
C109        H112   1.083       .  S
C110        C111   1.386       .  A
C110        H413   1.083       .  S
C111        C369   1.501       .  S
H113        C410   1.083   1_554  S
N114        C118   1.369       .  A
N114        C115   1.355       .  A
C115        C116   1.381       .  A
C116        C117   1.372       .  A
C116        H119   1.083       .  S
C117        C118   1.386       .  A
C117        H420   1.083       .  S
C118        C376   1.501       .  S
H120        C417   1.083   1_554  S
O121       Ni129   1.944       .  S
O121        C131   1.289       .  A
O122       Ni129   1.944       .  S
O122        C132   1.289       .  A
O123       Ni129   1.944       .  S
O123        C133   1.289       .  A
O124       Ni129   1.944       .  S
O124        C134   1.289       .  A
O125       Ni130   1.906       .  S
O125        C134   1.265       .  A
O126       Ni130   1.906       .  S
O126        C133   1.265       .  A
O127       Ni130   1.906       .  S
O127        C132   1.265       .  A
O128       Ni130   1.906       .  S
O128        C131   1.265       .  A
Ni129      Ni130   2.319       .  S
C131        N135   1.438       .  S
C132        N156   1.438       .  S
C133        N142   1.438       .  S
C134        N149   1.438       .  S
N135        C139   1.369       .  A
N135        C136   1.355       .  A
C136        C295   1.475       .  S
C136        C137   1.381       .  A
C137        C138   1.372       .  A
C137        H140   1.083       .  S
C138        C139   1.386       .  A
C138        H141   1.083       .  S
C139        C781   1.501   1_545  S
N142        C146   1.369       .  A
N142        C143   1.355       .  A
C143        C144   1.381       .  A
C144        C145   1.372       .  A
C144        H147   1.083       .  S
C145        C146   1.386       .  A
C145        H148   1.083       .  S
C146        C788   1.501   1_545  S
N149        C153   1.369       .  A
N149        C150   1.355       .  A
C150        C151   1.381       .  A
C151        C152   1.372       .  A
C151        H154   1.083       .  S
C152        C153   1.386       .  A
C152        H155   1.083       .  S
C153        C795   1.501   1_545  S
N156        C160   1.369       .  A
N156        C157   1.355       .  A
C157        C158   1.381       .  A
C158        C159   1.372       .  A
C158        H161   1.083       .  S
C159        C160   1.386       .  A
C159        H162   1.083       .  S
C160        C802   1.501   1_545  S
O163       Ni171   1.944       .  S
O163        C173   1.289       .  A
O164       Ni171   1.944       .  S
O164        C174   1.289       .  A
O165       Ni171   1.944       .  S
O165        C175   1.289       .  A
O166       Ni171   1.944       .  S
O166        C176   1.289       .  A
O167       Ni172   1.906       .  S
O167        C176   1.265       .  A
O168       Ni172   1.906       .  S
O168        C175   1.265       .  A
O169       Ni172   1.906       .  S
O169        C174   1.265       .  A
O170       Ni172   1.906       .  S
O170        C173   1.265       .  A
Ni171      Ni172   2.319       .  S
C173        N177   1.438       .  S
C174        N198   1.438       .  S
C175        N191   1.438       .  S
C176        N184   1.438       .  S
N177        C181   1.369       .  A
N177        C178   1.355       .  A
C178        C179   1.381       .  A
C179        C180   1.372       .  A
C179        H182   1.083       .  S
C180        C181   1.386       .  A
C180        H783   1.083       .  S
C181        C739   1.501       .  S
H183        C780   1.083   1_545  S
N184        C188   1.369       .  A
N184        C185   1.355       .  A
C185        C209   1.475       .  S
C185        C186   1.381       .  A
C186        C187   1.372       .  A
C186        H189   1.083       .  S
C187        C188   1.386       .  A
C187        H790   1.083       .  S
C188        C746   1.501       .  S
H190        C787   1.083   1_545  S
N191        C195   1.369       .  A
N191        C192   1.355       .  A
C192        C193   1.381       .  A
C193        C194   1.372       .  A
C193        H196   1.083       .  S
C194        C195   1.386       .  A
C194        H797   1.083       .  S
C195        C753   1.501       .  S
H197        C794   1.083   1_545  S
N198        C202   1.369       .  A
N198        C199   1.355       .  A
C199        C200   1.381       .  A
C200        C201   1.372       .  A
C200        H203   1.083       .  S
C201        C202   1.386       .  A
C201        H804   1.083       .  S
C202        C760   1.501       .  S
H204        C801   1.083   1_545  S
C205        N206   1.359       .  A
C205        N210   1.358       .  A
C205        C275   1.475       .  S
N206        C207   1.358       .  A
C207        N208   1.359       .  A
N208        C209   1.358       .  A
C209        N210   1.359       .  A
O211       Ni219   1.944       .  S
O211        C221   1.289       .  A
O212       Ni219   1.944       .  S
O212        C222   1.289       .  A
O213       Ni219   1.944       .  S
O213        C223   1.289       .  A
O214       Ni219   1.944       .  S
O214        C224   1.289       .  A
O215       Ni220   1.906       .  S
O215        C224   1.265       .  A
O216       Ni220   1.906       .  S
O216        C223   1.265       .  A
O217       Ni220   1.906       .  S
O217        C222   1.265       .  A
O218       Ni220   1.906       .  S
O218        C221   1.265       .  A
Ni219      Ni220   2.319       .  S
C221        N225   1.438       .  S
C222        N246   1.438       .  S
C223        N239   1.438       .  S
C224        N232   1.438       .  S
N225        C229   1.369       .  A
N225        C226   1.355       .  A
C226        C297   1.475       .  S
C226        C227   1.381       .  A
C227        C228   1.372       .  A
C227        H230   1.083       .  S
C228        C229   1.386       .  A
C228        H231   1.083       .  S
C229       C1471   1.501   1_455  S
N232        C236   1.369       .  A
N232        C233   1.355       .  A
C233        C234   1.381       .  A
C234        C235   1.372       .  A
C234        H237   1.083       .  S
C235        C236   1.386       .  A
C235        H238   1.083       .  S
C236       C1478   1.501   1_455  S
N239        C243   1.369       .  A
N239        C240   1.355       .  A
C240        C241   1.381       .  A
C241        C242   1.372       .  A
C241        H244   1.083       .  S
C242        C243   1.386       .  A
C242        H245   1.083       .  S
C243       C1485   1.501   1_455  S
N246        C250   1.369       .  A
N246        C247   1.355       .  A
C247        C248   1.381       .  A
C248        C249   1.372       .  A
C248        H251   1.083       .  S
C249        C250   1.386       .  A
C249        H252   1.083       .  S
C250       C1492   1.501   1_455  S
O253       Ni261   1.906       .  S
O253        C263   1.265       .  A
O254       Ni261   1.906       .  S
O254        C264   1.265       .  A
O255       Ni261   1.906       .  S
O255        C265   1.265       .  A
O256       Ni261   1.906       .  S
O256        C266   1.265       .  A
O257       Ni262   1.944       .  S
O257        C266   1.289       .  A
O258       Ni262   1.944       .  S
O258        C265   1.289       .  A
O259       Ni262   1.944       .  S
O259        C264   1.289       .  A
O260       Ni262   1.944       .  S
O260        C263   1.289       .  A
Ni261      Ni262   2.319       .  S
C263        N274   1.438       .  S
C264        N281   1.438       .  S
C265        N267   1.438       .  S
C266        N288   1.438       .  S
N267        C271   1.369       .  A
N267        C268   1.355       .  A
C268        C269   1.381       .  A
C269        C270   1.372       .  A
C269        H272   1.083       .  S
C270        C271   1.386       .  A
C270       H1473   1.083       .  S
C271       C1429   1.501       .  S
H273       C1470   1.083   1_455  S
N274        C278   1.369       .  A
N274        C275   1.355       .  A
C275        C276   1.381       .  A
C276        C277   1.372       .  A
C276        H279   1.083       .  S
C277        C278   1.386       .  A
C277       H1480   1.083       .  S
C278       C1436   1.501       .  S
H280       C1477   1.083   1_455  S
N281        C285   1.369       .  A
N281        C282   1.355       .  A
C282        C283   1.381       .  A
C283        C284   1.372       .  A
C283        H286   1.083       .  S
C284        C285   1.386       .  A
C284       H1487   1.083       .  S
C285       C1443   1.501       .  S
H287       C1484   1.083   1_455  S
N288        C292   1.369       .  A
N288        C289   1.355       .  A
C289        C290   1.381       .  A
C290        C291   1.372       .  A
C290        H293   1.083       .  S
C291        C292   1.386       .  A
C291       H1494   1.083       .  S
C292       C1450   1.501       .  S
H294       C1491   1.083   1_455  S
C295        N296   1.359       .  A
C295        N300   1.358       .  A
N296        C297   1.358       .  A
C297        N298   1.359       .  A
N298        C299   1.358       .  A
C299        N300   1.359       .  A
C301        N302   1.358       .  A
C301        N306   1.359       .  A
C301        C589   1.475       .  S
N302        C303   1.359       .  A
C303        N304   1.358       .  A
C303        C415   1.475       .  S
N304        C305   1.359       .  A
C305        N306   1.358       .  A
C305        C499   1.475       .  S
C307        N308   1.358       .  A
C307        N312   1.359       .  A
C307        C478   1.475       .  S
N308        C309   1.359       .  A
C309        N310   1.358       .  A
C309        C533   1.475       .  S
N310        C311   1.359       .  A
C311        N312   1.358       .  A
C311        C359   1.475       .  S
C313        N314   1.359       .  A
C313        N318   1.358       .  A
C313        C582   1.475       .  S
N314        C315   1.358       .  A
C315        N316   1.359       .  A
C315        C408   1.475       .  S
N316        C317   1.358       .  A
C317        N318   1.359       .  A
C317        C457   1.475       .  S
C319        N320   1.358       .  A
C319        N324   1.359       .  A
C319        C394   1.475       .  S
N320        C321   1.359       .  A
C321        N322   1.358       .  A
C321        C450   1.475       .  S
N322        C323   1.359       .  A
C323        N324   1.358       .  A
C323        C540   1.475       .  S
C325        N326   1.358       .  A
C325        N330   1.359       .  A
C325        C492   1.475       .  S
N326        C327   1.359       .  A
C327        N328   1.358       .  A
C327        C401   1.475       .  S
N328        C329   1.359       .  A
C329        N330   1.358       .  A
C329        C547   1.475       .  S
C331        N332   1.358       .  A
C331        N336   1.359       .  A
C331        C568   1.475       .  S
N332        C333   1.359       .  A
C333        N334   1.358       .  A
C333        C366   1.475       .  S
N334        C335   1.359       .  A
C335        N336   1.358       .  A
C335        C443   1.475       .  S
O337       Ni345   1.906       .  S
O337        C347   1.265       .  A
O338       Ni345   1.906       .  S
O338        C348   1.265       .  A
O339       Ni345   1.906       .  S
O339        C349   1.265       .  A
O340       Ni345   1.906       .  S
O340        C350   1.265       .  A
O341       Ni346   1.944       .  S
O341        C350   1.289       .  A
O342       Ni346   1.944       .  S
O342        C349   1.289       .  A
O343       Ni346   1.944       .  S
O343        C348   1.289       .  A
O344       Ni346   1.944       .  S
O344        C347   1.289       .  A
Ni345      Ni346   2.319       .  S
C347        N351   1.438       .  S
C348        N372   1.438       .  S
C349        N365   1.438       .  S
C350        N358   1.438       .  S
N351        C355   1.369       .  A
N351        C352   1.355       .  A
C352        C599   1.475       .  S
C352        C353   1.381       .  A
C353        C354   1.372       .  A
C353        H356   1.083       .  S
C354        C355   1.386       .  A
C354        H357   1.083       .  S
N358        C362   1.369       .  A
N358        C359   1.355       .  A
C359        C360   1.381       .  A
C360        C361   1.372       .  A
C360        H363   1.083       .  S
C361        C362   1.386       .  A
C361        H364   1.083       .  S
N365        C369   1.369       .  A
N365        C366   1.355       .  A
C366        C367   1.381       .  A
C367        C368   1.372       .  A
C367        H370   1.083       .  S
C368        C369   1.386       .  A
C368        H371   1.083       .  S
N372        C376   1.369       .  A
N372        C373   1.355       .  A
C373        C507   1.475       .  S
C373        C374   1.381       .  A
C374        C375   1.372       .  A
C374        H377   1.083       .  S
C375        C376   1.386       .  A
C375        H378   1.083       .  S
O379       Ni387   1.944       .  S
O379        C389   1.289       .  A
O380       Ni387   1.944       .  S
O380        C390   1.289       .  A
O381       Ni387   1.944       .  S
O381        C391   1.289       .  A
O382       Ni387   1.944       .  S
O382        C392   1.289       .  A
O383       Ni388   1.906       .  S
O383        C392   1.265       .  A
O384       Ni388   1.906       .  S
O384        C391   1.265       .  A
O385       Ni388   1.906       .  S
O385        C390   1.265       .  A
O386       Ni388   1.906       .  S
O386        C389   1.265       .  A
Ni387      Ni388   2.319       .  S
C389        N393   1.438       .  S
C390        N414   1.438       .  S
C391        N407   1.438       .  S
C392        N400   1.438       .  S
N393        C397   1.369       .  A
N393        C394   1.355       .  A
C394        C395   1.381       .  A
C395        C396   1.372       .  A
C395        H398   1.083       .  S
C396        C397   1.386       .  A
N400        C404   1.369       .  A
N400        C401   1.355       .  A
C401        C402   1.381       .  A
C402        C403   1.372       .  A
C402        H405   1.083       .  S
C403        C404   1.386       .  A
N407        C411   1.369       .  A
N407        C408   1.355       .  A
C408        C409   1.381       .  A
C409        C410   1.372       .  A
C409        H412   1.083       .  S
C410        C411   1.386       .  A
N414        C418   1.369       .  A
N414        C415   1.355       .  A
C415        C416   1.381       .  A
C416        C417   1.372       .  A
C416        H419   1.083       .  S
C417        C418   1.386       .  A
O421       Ni429   1.944       .  S
O421        C431   1.289       .  A
O422       Ni429   1.944       .  S
O422        C432   1.289       .  A
O423       Ni429   1.944       .  S
O423        C433   1.289       .  A
O424       Ni429   1.944       .  S
O424        C434   1.289       .  A
O425       Ni430   1.906       .  S
O425        C434   1.265       .  A
O426       Ni430   1.906       .  S
O426        C433   1.265       .  A
O427       Ni430   1.906       .  S
O427        C432   1.265       .  A
O428       Ni430   1.906       .  S
O428        C431   1.265       .  A
Ni429      Ni430   2.319       .  S
C431        N435   1.438       .  S
C432        N456   1.438       .  S
C433        N442   1.438       .  S
C434        N449   1.438       .  S
N435        C439   1.369       .  A
N435        C436   1.355       .  A
C436        C595   1.475       .  S
C436        C437   1.381       .  A
C437        C438   1.372       .  A
C437        H440   1.083       .  S
C438        C439   1.386       .  A
C438        H441   1.083       .  S
C439       C1081   1.501   1_545  S
N442        C446   1.369       .  A
N442        C443   1.355       .  A
C443        C444   1.381       .  A
C444        C445   1.372       .  A
C444        H447   1.083       .  S
C445        C446   1.386       .  A
C445        H448   1.083       .  S
C446       C1088   1.501   1_545  S
N449        C453   1.369       .  A
N449        C450   1.355       .  A
C450        C451   1.381       .  A
C451        C452   1.372       .  A
C451        H454   1.083       .  S
C452        C453   1.386       .  A
C452        H455   1.083       .  S
C453       C1095   1.501   1_545  S
N456        C460   1.369       .  A
N456        C457   1.355       .  A
C457        C458   1.381       .  A
C458        C459   1.372       .  A
C458        H461   1.083       .  S
C459        C460   1.386       .  A
C459        H462   1.083       .  S
C460       C1102   1.501   1_545  S
O463       Ni471   1.944       .  S
O463        C473   1.289       .  A
O464       Ni471   1.944       .  S
O464        C474   1.289       .  A
O465       Ni471   1.944       .  S
O465        C475   1.289       .  A
O466       Ni471   1.944       .  S
O466        C476   1.289       .  A
O467       Ni472   1.906       .  S
O467        C476   1.265       .  A
O468       Ni472   1.906       .  S
O468        C475   1.265       .  A
O469       Ni472   1.906       .  S
O469        C474   1.265       .  A
O470       Ni472   1.906       .  S
O470        C473   1.265       .  A
Ni471      Ni472   2.319       .  S
C473        N477   1.438       .  S
C474        N498   1.438       .  S
C475        N491   1.438       .  S
C476        N484   1.438       .  S
N477        C481   1.369       .  A
N477        C478   1.355       .  A
C478        C479   1.381       .  A
C479        C480   1.372       .  A
C479        H482   1.083       .  S
C480        C481   1.386       .  A
C480       H1083   1.083       .  S
C481       C1039   1.501       .  S
H483       C1080   1.083   1_545  S
N484        C488   1.369       .  A
N484        C485   1.355       .  A
C485        C509   1.475       .  S
C485        C486   1.381       .  A
C486        C487   1.372       .  A
C486        H489   1.083       .  S
C487        C488   1.386       .  A
C487       H1090   1.083       .  S
C488       C1046   1.501       .  S
H490       C1087   1.083   1_545  S
N491        C495   1.369       .  A
N491        C492   1.355       .  A
C492        C493   1.381       .  A
C493        C494   1.372       .  A
C493        H496   1.083       .  S
C494        C495   1.386       .  A
C494       H1097   1.083       .  S
C495       C1053   1.501       .  S
H497       C1094   1.083   1_545  S
N498        C502   1.369       .  A
N498        C499   1.355       .  A
C499        C500   1.381       .  A
C500        C501   1.372       .  A
C500        H503   1.083       .  S
C501        C502   1.386       .  A
C501       H1104   1.083       .  S
C502       C1060   1.501       .  S
H504       C1101   1.083   1_545  S
C505        N506   1.359       .  A
C505        N510   1.358       .  A
C505        C575   1.475       .  S
N506        C507   1.358       .  A
C507        N508   1.359       .  A
N508        C509   1.358       .  A
C509        N510   1.359       .  A
O511       Ni519   1.944       .  S
O511        C521   1.289       .  A
O512       Ni519   1.944       .  S
O512        C522   1.289       .  A
O513       Ni519   1.944       .  S
O513        C523   1.289       .  A
O514       Ni519   1.944       .  S
O514        C524   1.289       .  A
O515       Ni520   1.906       .  S
O515        C524   1.265       .  A
O516       Ni520   1.906       .  S
O516        C523   1.265       .  A
O517       Ni520   1.906       .  S
O517        C522   1.265       .  A
O518       Ni520   1.906       .  S
O518        C521   1.265       .  A
Ni519      Ni520   2.319       .  S
C521        N525   1.438       .  S
C522        N546   1.438       .  S
C523        N539   1.438       .  S
C524        N532   1.438       .  S
N525        C529   1.369       .  A
N525        C526   1.355       .  A
C526        C597   1.475       .  S
C526        C527   1.381       .  A
C527        C528   1.372       .  A
C527        H530   1.083       .  S
C528        C529   1.386       .  A
C528        H531   1.083       .  S
C529       C1771   1.501   1_455  S
N532        C536   1.369       .  A
N532        C533   1.355       .  A
C533        C534   1.381       .  A
C534        C535   1.372       .  A
C534        H537   1.083       .  S
C535        C536   1.386       .  A
C535        H538   1.083       .  S
C536       C1778   1.501   1_455  S
N539        C543   1.369       .  A
N539        C540   1.355       .  A
C540        C541   1.381       .  A
C541        C542   1.372       .  A
C541        H544   1.083       .  S
C542        C543   1.386       .  A
C542        H545   1.083       .  S
C543       C1785   1.501   1_455  S
N546        C550   1.369       .  A
N546        C547   1.355       .  A
C547        C548   1.381       .  A
C548        C549   1.372       .  A
C548        H551   1.083       .  S
C549        C550   1.386       .  A
C549        H552   1.083       .  S
C550       C1792   1.501   1_455  S
O553       Ni561   1.906       .  S
O553        C563   1.265       .  A
O554       Ni561   1.906       .  S
O554        C564   1.265       .  A
O555       Ni561   1.906       .  S
O555        C565   1.265       .  A
O556       Ni561   1.906       .  S
O556        C566   1.265       .  A
O557       Ni562   1.944       .  S
O557        C566   1.289       .  A
O558       Ni562   1.944       .  S
O558        C565   1.289       .  A
O559       Ni562   1.944       .  S
O559        C564   1.289       .  A
O560       Ni562   1.944       .  S
O560        C563   1.289       .  A
Ni561      Ni562   2.319       .  S
C563        N574   1.438       .  S
C564        N581   1.438       .  S
C565        N567   1.438       .  S
C566        N588   1.438       .  S
N567        C571   1.369       .  A
N567        C568   1.355       .  A
C568        C569   1.381       .  A
C569        C570   1.372       .  A
C569        H572   1.083       .  S
C570        C571   1.386       .  A
C570       H1773   1.083       .  S
C571       C1729   1.501       .  S
H573       C1770   1.083   1_455  S
N574        C578   1.369       .  A
N574        C575   1.355       .  A
C575        C576   1.381       .  A
C576        C577   1.372       .  A
C576        H579   1.083       .  S
C577        C578   1.386       .  A
C577       H1780   1.083       .  S
C578       C1736   1.501       .  S
H580       C1777   1.083   1_455  S
N581        C585   1.369       .  A
N581        C582   1.355       .  A
C582        C583   1.381       .  A
C583        C584   1.372       .  A
C583        H586   1.083       .  S
C584        C585   1.386       .  A
C584       H1787   1.083       .  S
C585       C1743   1.501       .  S
H587       C1784   1.083   1_455  S
N588        C592   1.369       .  A
N588        C589   1.355       .  A
C589        C590   1.381       .  A
C590        C591   1.372       .  A
C590        H593   1.083       .  S
C591        C592   1.386       .  A
C591       H1794   1.083       .  S
C592       C1750   1.501       .  S
H594       C1791   1.083   1_455  S
C595        N596   1.359       .  A
C595        N600   1.358       .  A
N596        C597   1.358       .  A
C597        N598   1.359       .  A
N598        C599   1.358       .  A
C599        N600   1.359       .  A
C601        N602   1.358       .  A
C601        N606   1.359       .  A
C601        C889   1.475       .  S
N602        C603   1.359       .  A
C603        N604   1.358       .  A
C603        C715   1.475       .  S
N604        C605   1.359       .  A
C605        N606   1.358       .  A
C605        C799   1.475       .  S
C607        N608   1.358       .  A
C607        N612   1.359       .  A
C607        C778   1.475       .  S
N608        C609   1.359       .  A
C609        N610   1.358       .  A
C609        C833   1.475       .  S
N610        C611   1.359       .  A
C611        N612   1.358       .  A
C611        C659   1.475       .  S
C613        N614   1.359       .  A
C613        N618   1.358       .  A
C613        C882   1.475       .  S
N614        C615   1.358       .  A
C615        N616   1.359       .  A
C615        C708   1.475       .  S
N616        C617   1.358       .  A
C617        N618   1.359       .  A
C617        C757   1.475       .  S
C619        N620   1.358       .  A
C619        N624   1.359       .  A
C619        C694   1.475       .  S
N620        C621   1.359       .  A
C621        N622   1.358       .  A
C621        C750   1.475       .  S
N622        C623   1.359       .  A
C623        N624   1.358       .  A
C623        C840   1.475       .  S
C625        N626   1.358       .  A
C625        N630   1.359       .  A
C625        C792   1.475       .  S
N626        C627   1.359       .  A
C627        N628   1.358       .  A
C627        C701   1.475       .  S
N628        C629   1.359       .  A
C629        N630   1.358       .  A
C629        C847   1.475       .  S
C631        N632   1.358       .  A
C631        N636   1.359       .  A
C631        C868   1.475       .  S
N632        C633   1.359       .  A
C633        N634   1.358       .  A
C633        C666   1.475       .  S
N634        C635   1.359       .  A
C635        N636   1.358       .  A
C635        C743   1.475       .  S
O637       Ni645   1.906       .  S
O637        C647   1.265       .  A
O638       Ni645   1.906       .  S
O638        C648   1.265       .  A
O639       Ni645   1.906       .  S
O639        C649   1.265       .  A
O640       Ni645   1.906       .  S
O640        C650   1.265       .  A
O641       Ni646   1.944       .  S
O641        C650   1.289       .  A
O642       Ni646   1.944       .  S
O642        C649   1.289       .  A
O643       Ni646   1.944       .  S
O643        C648   1.289       .  A
O644       Ni646   1.944       .  S
O644        C647   1.289       .  A
Ni645      Ni646   2.319       .  S
C647        N651   1.438       .  S
C648        N672   1.438       .  S
C649        N665   1.438       .  S
C650        N658   1.438       .  S
N651        C655   1.369       .  A
N651        C652   1.355       .  A
C652        C899   1.475       .  S
C652        C653   1.381       .  A
C653        C654   1.372       .  A
C653        H656   1.083       .  S
C654        C655   1.386       .  A
C654        H657   1.083       .  S
C655        C997   1.501   1_554  S
N658        C662   1.369       .  A
N658        C659   1.355       .  A
C659        C660   1.381       .  A
C660        C661   1.372       .  A
C660        H663   1.083       .  S
C661        C662   1.386       .  A
C661        H664   1.083       .  S
C662       C1004   1.501   1_554  S
N665        C669   1.369       .  A
N665        C666   1.355       .  A
C666        C667   1.381       .  A
C667        C668   1.372       .  A
C667        H670   1.083       .  S
C668        C669   1.386       .  A
C668        H671   1.083       .  S
C669       C1011   1.501   1_554  S
N672        C676   1.369       .  A
N672        C673   1.355       .  A
C673        C807   1.475       .  S
C673        C674   1.381       .  A
C674        C675   1.372       .  A
C674        H677   1.083       .  S
C675        C676   1.386       .  A
C675        H678   1.083       .  S
C676       C1018   1.501   1_554  S
O679       Ni687   1.944       .  S
O679        C689   1.289       .  A
O680       Ni687   1.944       .  S
O680        C690   1.289       .  A
O681       Ni687   1.944       .  S
O681        C691   1.289       .  A
O682       Ni687   1.944       .  S
O682        C692   1.289       .  A
O683       Ni688   1.906       .  S
O683        C692   1.265       .  A
O684       Ni688   1.906       .  S
O684        C691   1.265       .  A
O685       Ni688   1.906       .  S
O685        C690   1.265       .  A
O686       Ni688   1.906       .  S
O686        C689   1.265       .  A
Ni687      Ni688   2.319       .  S
C689        N693   1.438       .  S
C690        N714   1.438       .  S
C691        N707   1.438       .  S
C692        N700   1.438       .  S
N693        C697   1.369       .  A
N693        C694   1.355       .  A
C694        C695   1.381       .  A
C695        C696   1.372       .  A
C695        H698   1.083       .  S
C696        C697   1.386       .  A
C696        H999   1.083       .  S
C697        C955   1.501       .  S
H699        C996   1.083   1_554  S
N700        C704   1.369       .  A
N700        C701   1.355       .  A
C701        C702   1.381       .  A
C702        C703   1.372       .  A
C702        H705   1.083       .  S
C703        C704   1.386       .  A
C703       H1006   1.083       .  S
C704        C962   1.501       .  S
H706       C1003   1.083   1_554  S
N707        C711   1.369       .  A
N707        C708   1.355       .  A
C708        C709   1.381       .  A
C709        C710   1.372       .  A
C709        H712   1.083       .  S
C710        C711   1.386       .  A
C710       H1013   1.083       .  S
C711        C969   1.501       .  S
H713       C1010   1.083   1_554  S
N714        C718   1.369       .  A
N714        C715   1.355       .  A
C715        C716   1.381       .  A
C716        C717   1.372       .  A
C716        H719   1.083       .  S
C717        C718   1.386       .  A
C717       H1020   1.083       .  S
C718        C976   1.501       .  S
H720       C1017   1.083   1_554  S
O721       Ni729   1.944       .  S
O721        C731   1.289       .  A
O722       Ni729   1.944       .  S
O722        C732   1.289       .  A
O723       Ni729   1.944       .  S
O723        C733   1.289       .  A
O724       Ni729   1.944       .  S
O724        C734   1.289       .  A
O725       Ni730   1.906       .  S
O725        C734   1.265       .  A
O726       Ni730   1.906       .  S
O726        C733   1.265       .  A
O727       Ni730   1.906       .  S
O727        C732   1.265       .  A
O728       Ni730   1.906       .  S
O728        C731   1.265       .  A
Ni729      Ni730   2.319       .  S
C731        N735   1.438       .  S
C732        N756   1.438       .  S
C733        N742   1.438       .  S
C734        N749   1.438       .  S
N735        C739   1.369       .  A
N735        C736   1.355       .  A
C736        C895   1.475       .  S
C736        C737   1.381       .  A
C737        C738   1.372       .  A
C737        H740   1.083       .  S
C738        C739   1.386       .  A
C738        H741   1.083       .  S
N742        C746   1.369       .  A
N742        C743   1.355       .  A
C743        C744   1.381       .  A
C744        C745   1.372       .  A
C744        H747   1.083       .  S
C745        C746   1.386       .  A
C745        H748   1.083       .  S
N749        C753   1.369       .  A
N749        C750   1.355       .  A
C750        C751   1.381       .  A
C751        C752   1.372       .  A
C751        H754   1.083       .  S
C752        C753   1.386       .  A
C752        H755   1.083       .  S
N756        C760   1.369       .  A
N756        C757   1.355       .  A
C757        C758   1.381       .  A
C758        C759   1.372       .  A
C758        H761   1.083       .  S
C759        C760   1.386       .  A
C759        H762   1.083       .  S
O763       Ni771   1.944       .  S
O763        C773   1.289       .  A
O764       Ni771   1.944       .  S
O764        C774   1.289       .  A
O765       Ni771   1.944       .  S
O765        C775   1.289       .  A
O766       Ni771   1.944       .  S
O766        C776   1.289       .  A
O767       Ni772   1.906       .  S
O767        C776   1.265       .  A
O768       Ni772   1.906       .  S
O768        C775   1.265       .  A
O769       Ni772   1.906       .  S
O769        C774   1.265       .  A
O770       Ni772   1.906       .  S
O770        C773   1.265       .  A
Ni771      Ni772   2.319       .  S
C773        N777   1.438       .  S
C774        N798   1.438       .  S
C775        N791   1.438       .  S
C776        N784   1.438       .  S
N777        C781   1.369       .  A
N777        C778   1.355       .  A
C778        C779   1.381       .  A
C779        C780   1.372       .  A
C779        H782   1.083       .  S
C780        C781   1.386       .  A
N784        C788   1.369       .  A
N784        C785   1.355       .  A
C785        C809   1.475       .  S
C785        C786   1.381       .  A
C786        C787   1.372       .  A
C786        H789   1.083       .  S
C787        C788   1.386       .  A
N791        C795   1.369       .  A
N791        C792   1.355       .  A
C792        C793   1.381       .  A
C793        C794   1.372       .  A
C793        H796   1.083       .  S
C794        C795   1.386       .  A
N798        C802   1.369       .  A
N798        C799   1.355       .  A
C799        C800   1.381       .  A
C800        C801   1.372       .  A
C800        H803   1.083       .  S
C801        C802   1.386       .  A
C805        N806   1.359       .  A
C805        N810   1.358       .  A
C805        C875   1.475       .  S
N806        C807   1.358       .  A
C807        N808   1.359       .  A
N808        C809   1.358       .  A
C809        N810   1.359       .  A
O811       Ni819   1.944       .  S
O811        C821   1.289       .  A
O812       Ni819   1.944       .  S
O812        C822   1.289       .  A
O813       Ni819   1.944       .  S
O813        C823   1.289       .  A
O814       Ni819   1.944       .  S
O814        C824   1.289       .  A
O815       Ni820   1.906       .  S
O815        C824   1.265       .  A
O816       Ni820   1.906       .  S
O816        C823   1.265       .  A
O817       Ni820   1.906       .  S
O817        C822   1.265       .  A
O818       Ni820   1.906       .  S
O818        C821   1.265       .  A
Ni819      Ni820   2.319       .  S
C821        N825   1.438       .  S
C822        N846   1.438       .  S
C823        N839   1.438       .  S
C824        N832   1.438       .  S
N825        C829   1.369       .  A
N825        C826   1.355       .  A
C826        C897   1.475       .  S
C826        C827   1.381       .  A
C827        C828   1.372       .  A
C827        H830   1.083       .  S
C828        C829   1.386       .  A
C828        H831   1.083       .  S
C829       C2071   1.501   1_455  S
N832        C836   1.369       .  A
N832        C833   1.355       .  A
C833        C834   1.381       .  A
C834        C835   1.372       .  A
C834        H837   1.083       .  S
C835        C836   1.386       .  A
C835        H838   1.083       .  S
C836       C2078   1.501   1_455  S
N839        C843   1.369       .  A
N839        C840   1.355       .  A
C840        C841   1.381       .  A
C841        C842   1.372       .  A
C841        H844   1.083       .  S
C842        C843   1.386       .  A
C842        H845   1.083       .  S
C843       C2085   1.501   1_455  S
N846        C850   1.369       .  A
N846        C847   1.355       .  A
C847        C848   1.381       .  A
C848        C849   1.372       .  A
C848        H851   1.083       .  S
C849        C850   1.386       .  A
C849        H852   1.083       .  S
C850       C2092   1.501   1_455  S
O853       Ni861   1.906       .  S
O853        C863   1.265       .  A
O854       Ni861   1.906       .  S
O854        C864   1.265       .  A
O855       Ni861   1.906       .  S
O855        C865   1.265       .  A
O856       Ni861   1.906       .  S
O856        C866   1.265       .  A
O857       Ni862   1.944       .  S
O857        C866   1.289       .  A
O858       Ni862   1.944       .  S
O858        C865   1.289       .  A
O859       Ni862   1.944       .  S
O859        C864   1.289       .  A
O860       Ni862   1.944       .  S
O860        C863   1.289       .  A
Ni861      Ni862   2.319       .  S
C863        N874   1.438       .  S
C864        N881   1.438       .  S
C865        N867   1.438       .  S
C866        N888   1.438       .  S
N867        C871   1.369       .  A
N867        C868   1.355       .  A
C868        C869   1.381       .  A
C869        C870   1.372       .  A
C869        H872   1.083       .  S
C870        C871   1.386       .  A
C870       H2073   1.083       .  S
C871       C2029   1.501       .  S
H873       C2070   1.083   1_455  S
N874        C878   1.369       .  A
N874        C875   1.355       .  A
C875        C876   1.381       .  A
C876        C877   1.372       .  A
C876        H879   1.083       .  S
C877        C878   1.386       .  A
C877       H2080   1.083       .  S
C878       C2036   1.501       .  S
H880       C2077   1.083   1_455  S
N881        C885   1.369       .  A
N881        C882   1.355       .  A
C882        C883   1.381       .  A
C883        C884   1.372       .  A
C883        H886   1.083       .  S
C884        C885   1.386       .  A
C884       H2087   1.083       .  S
C885       C2043   1.501       .  S
H887       C2084   1.083   1_455  S
N888        C892   1.369       .  A
N888        C889   1.355       .  A
C889        C890   1.381       .  A
C890        C891   1.372       .  A
C890        H893   1.083       .  S
C891        C892   1.386       .  A
C891       H2094   1.083       .  S
C892       C2050   1.501       .  S
H894       C2091   1.083   1_455  S
C895        N896   1.359       .  A
C895        N900   1.358       .  A
N896        C897   1.358       .  A
C897        N898   1.359       .  A
N898        C899   1.358       .  A
C899        N900   1.359       .  A
C901        N902   1.358       .  A
C901        N906   1.359       .  A
C901       C1189   1.475       .  S
N902        C903   1.359       .  A
C903        N904   1.358       .  A
C903       C1015   1.475       .  S
N904        C905   1.359       .  A
C905        N906   1.358       .  A
C905       C1099   1.475       .  S
C907        N908   1.358       .  A
C907        N912   1.359       .  A
C907       C1078   1.475       .  S
N908        C909   1.359       .  A
C909        N910   1.358       .  A
C909       C1133   1.475       .  S
N910        C911   1.359       .  A
C911        N912   1.358       .  A
C911        C959   1.475       .  S
C913        N914   1.359       .  A
C913        N918   1.358       .  A
C913       C1182   1.475       .  S
N914        C915   1.358       .  A
C915        N916   1.359       .  A
C915       C1008   1.475       .  S
N916        C917   1.358       .  A
C917        N918   1.359       .  A
C917       C1057   1.475       .  S
C919        N920   1.358       .  A
C919        N924   1.359       .  A
C919        C994   1.475       .  S
N920        C921   1.359       .  A
C921        N922   1.358       .  A
C921       C1050   1.475       .  S
N922        C923   1.359       .  A
C923        N924   1.358       .  A
C923       C1140   1.475       .  S
C925        N926   1.358       .  A
C925        N930   1.359       .  A
C925       C1092   1.475       .  S
N926        C927   1.359       .  A
C927        N928   1.358       .  A
C927       C1001   1.475       .  S
N928        C929   1.359       .  A
C929        N930   1.358       .  A
C929       C1147   1.475       .  S
C931        N932   1.358       .  A
C931        N936   1.359       .  A
C931       C1168   1.475       .  S
N932        C933   1.359       .  A
C933        N934   1.358       .  A
C933        C966   1.475       .  S
N934        C935   1.359       .  A
C935        N936   1.358       .  A
C935       C1043   1.475       .  S
O937       Ni945   1.906       .  S
O937        C947   1.265       .  A
O938       Ni945   1.906       .  S
O938        C948   1.265       .  A
O939       Ni945   1.906       .  S
O939        C949   1.265       .  A
O940       Ni945   1.906       .  S
O940        C950   1.265       .  A
O941       Ni946   1.944       .  S
O941        C950   1.289       .  A
O942       Ni946   1.944       .  S
O942        C949   1.289       .  A
O943       Ni946   1.944       .  S
O943        C948   1.289       .  A
O944       Ni946   1.944       .  S
O944        C947   1.289       .  A
Ni945      Ni946   2.319       .  S
C947        N951   1.438       .  S
C948        N972   1.438       .  S
C949        N965   1.438       .  S
C950        N958   1.438       .  S
N951        C955   1.369       .  A
N951        C952   1.355       .  A
C952       C1199   1.475       .  S
C952        C953   1.381       .  A
C953        C954   1.372       .  A
C953        H956   1.083       .  S
C954        C955   1.386       .  A
C954        H957   1.083       .  S
N958        C962   1.369       .  A
N958        C959   1.355       .  A
C959        C960   1.381       .  A
C960        C961   1.372       .  A
C960        H963   1.083       .  S
C961        C962   1.386       .  A
C961        H964   1.083       .  S
N965        C969   1.369       .  A
N965        C966   1.355       .  A
C966        C967   1.381       .  A
C967        C968   1.372       .  A
C967        H970   1.083       .  S
C968        C969   1.386       .  A
C968        H971   1.083       .  S
N972        C976   1.369       .  A
N972        C973   1.355       .  A
C973       C1107   1.475       .  S
C973        C974   1.381       .  A
C974        C975   1.372       .  A
C974        H977   1.083       .  S
C975        C976   1.386       .  A
C975        H978   1.083       .  S
O979       Ni987   1.944       .  S
O979        C989   1.289       .  A
O980       Ni987   1.944       .  S
O980        C990   1.289       .  A
O981       Ni987   1.944       .  S
O981        C991   1.289       .  A
O982       Ni987   1.944       .  S
O982        C992   1.289       .  A
O983       Ni988   1.906       .  S
O983        C992   1.265       .  A
O984       Ni988   1.906       .  S
O984        C991   1.265       .  A
O985       Ni988   1.906       .  S
O985        C990   1.265       .  A
O986       Ni988   1.906       .  S
O986        C989   1.265       .  A
Ni987      Ni988   2.319       .  S
C989        N993   1.438       .  S
C990       N1014   1.438       .  S
C991       N1007   1.438       .  S
C992       N1000   1.438       .  S
N993        C997   1.369       .  A
N993        C994   1.355       .  A
C994        C995   1.381       .  A
C995        C996   1.372       .  A
C995        H998   1.083       .  S
C996        C997   1.386       .  A
N1000      C1004   1.369       .  A
N1000      C1001   1.355       .  A
C1001      C1002   1.381       .  A
C1002      C1003   1.372       .  A
C1002      H1005   1.083       .  S
C1003      C1004   1.386       .  A
N1007      C1011   1.369       .  A
N1007      C1008   1.355       .  A
C1008      C1009   1.381       .  A
C1009      C1010   1.372       .  A
C1009      H1012   1.083       .  S
C1010      C1011   1.386       .  A
N1014      C1018   1.369       .  A
N1014      C1015   1.355       .  A
C1015      C1016   1.381       .  A
C1016      C1017   1.372       .  A
C1016      H1019   1.083       .  S
C1017      C1018   1.386       .  A
O1021     Ni1029   1.944       .  S
O1021      C1031   1.289       .  A
O1022     Ni1029   1.944       .  S
O1022      C1032   1.289       .  A
O1023     Ni1029   1.944       .  S
O1023      C1033   1.289       .  A
O1024     Ni1029   1.944       .  S
O1024      C1034   1.289       .  A
O1025     Ni1030   1.906       .  S
O1025      C1034   1.265       .  A
O1026     Ni1030   1.906       .  S
O1026      C1033   1.265       .  A
O1027     Ni1030   1.906       .  S
O1027      C1032   1.265       .  A
O1028     Ni1030   1.906       .  S
O1028      C1031   1.265       .  A
Ni1029    Ni1030   2.319       .  S
C1031      N1035   1.438       .  S
C1032      N1056   1.438       .  S
C1033      N1042   1.438       .  S
C1034      N1049   1.438       .  S
N1035      C1039   1.369       .  A
N1035      C1036   1.355       .  A
C1036      C1195   1.475       .  S
C1036      C1037   1.381       .  A
C1037      C1038   1.372       .  A
C1037      H1040   1.083       .  S
C1038      C1039   1.386       .  A
C1038      H1041   1.083       .  S
N1042      C1046   1.369       .  A
N1042      C1043   1.355       .  A
C1043      C1044   1.381       .  A
C1044      C1045   1.372       .  A
C1044      H1047   1.083       .  S
C1045      C1046   1.386       .  A
C1045      H1048   1.083       .  S
N1049      C1053   1.369       .  A
N1049      C1050   1.355       .  A
C1050      C1051   1.381       .  A
C1051      C1052   1.372       .  A
C1051      H1054   1.083       .  S
C1052      C1053   1.386       .  A
C1052      H1055   1.083       .  S
N1056      C1060   1.369       .  A
N1056      C1057   1.355       .  A
C1057      C1058   1.381       .  A
C1058      C1059   1.372       .  A
C1058      H1061   1.083       .  S
C1059      C1060   1.386       .  A
C1059      H1062   1.083       .  S
O1063     Ni1071   1.944       .  S
O1063      C1073   1.289       .  A
O1064     Ni1071   1.944       .  S
O1064      C1074   1.289       .  A
O1065     Ni1071   1.944       .  S
O1065      C1075   1.289       .  A
O1066     Ni1071   1.944       .  S
O1066      C1076   1.289       .  A
O1067     Ni1072   1.906       .  S
O1067      C1076   1.265       .  A
O1068     Ni1072   1.906       .  S
O1068      C1075   1.265       .  A
O1069     Ni1072   1.906       .  S
O1069      C1074   1.265       .  A
O1070     Ni1072   1.906       .  S
O1070      C1073   1.265       .  A
Ni1071    Ni1072   2.319       .  S
C1073      N1077   1.438       .  S
C1074      N1098   1.438       .  S
C1075      N1091   1.438       .  S
C1076      N1084   1.438       .  S
N1077      C1081   1.369       .  A
N1077      C1078   1.355       .  A
C1078      C1079   1.381       .  A
C1079      C1080   1.372       .  A
C1079      H1082   1.083       .  S
C1080      C1081   1.386       .  A
N1084      C1088   1.369       .  A
N1084      C1085   1.355       .  A
C1085      C1109   1.475       .  S
C1085      C1086   1.381       .  A
C1086      C1087   1.372       .  A
C1086      H1089   1.083       .  S
C1087      C1088   1.386       .  A
N1091      C1095   1.369       .  A
N1091      C1092   1.355       .  A
C1092      C1093   1.381       .  A
C1093      C1094   1.372       .  A
C1093      H1096   1.083       .  S
C1094      C1095   1.386       .  A
N1098      C1102   1.369       .  A
N1098      C1099   1.355       .  A
C1099      C1100   1.381       .  A
C1100      C1101   1.372       .  A
C1100      H1103   1.083       .  S
C1101      C1102   1.386       .  A
C1105      N1106   1.359       .  A
C1105      N1110   1.358       .  A
C1105      C1175   1.475       .  S
N1106      C1107   1.358       .  A
C1107      N1108   1.359       .  A
N1108      C1109   1.358       .  A
C1109      N1110   1.359       .  A
O1111     Ni1119   1.944       .  S
O1111      C1121   1.289       .  A
O1112     Ni1119   1.944       .  S
O1112      C1122   1.289       .  A
O1113     Ni1119   1.944       .  S
O1113      C1123   1.289       .  A
O1114     Ni1119   1.944       .  S
O1114      C1124   1.289       .  A
O1115     Ni1120   1.906       .  S
O1115      C1124   1.265       .  A
O1116     Ni1120   1.906       .  S
O1116      C1123   1.265       .  A
O1117     Ni1120   1.906       .  S
O1117      C1122   1.265       .  A
O1118     Ni1120   1.906       .  S
O1118      C1121   1.265       .  A
Ni1119    Ni1120   2.319       .  S
C1121      N1125   1.438       .  S
C1122      N1146   1.438       .  S
C1123      N1139   1.438       .  S
C1124      N1132   1.438       .  S
N1125      C1129   1.369       .  A
N1125      C1126   1.355       .  A
C1126      C1197   1.475       .  S
C1126      C1127   1.381       .  A
C1127      C1128   1.372       .  A
C1127      H1130   1.083       .  S
C1128      C1129   1.386       .  A
C1128      H1131   1.083       .  S
C1129      C2371   1.501   1_455  S
N1132      C1136   1.369       .  A
N1132      C1133   1.355       .  A
C1133      C1134   1.381       .  A
C1134      C1135   1.372       .  A
C1134      H1137   1.083       .  S
C1135      C1136   1.386       .  A
C1135      H1138   1.083       .  S
C1136      C2378   1.501   1_455  S
N1139      C1143   1.369       .  A
N1139      C1140   1.355       .  A
C1140      C1141   1.381       .  A
C1141      C1142   1.372       .  A
C1141      H1144   1.083       .  S
C1142      C1143   1.386       .  A
C1142      H1145   1.083       .  S
C1143      C2385   1.501   1_455  S
N1146      C1150   1.369       .  A
N1146      C1147   1.355       .  A
C1147      C1148   1.381       .  A
C1148      C1149   1.372       .  A
C1148      H1151   1.083       .  S
C1149      C1150   1.386       .  A
C1149      H1152   1.083       .  S
C1150      C2392   1.501   1_455  S
O1153     Ni1161   1.906       .  S
O1153      C1163   1.265       .  A
O1154     Ni1161   1.906       .  S
O1154      C1164   1.265       .  A
O1155     Ni1161   1.906       .  S
O1155      C1165   1.265       .  A
O1156     Ni1161   1.906       .  S
O1156      C1166   1.265       .  A
O1157     Ni1162   1.944       .  S
O1157      C1166   1.289       .  A
O1158     Ni1162   1.944       .  S
O1158      C1165   1.289       .  A
O1159     Ni1162   1.944       .  S
O1159      C1164   1.289       .  A
O1160     Ni1162   1.944       .  S
O1160      C1163   1.289       .  A
Ni1161    Ni1162   2.319       .  S
C1163      N1174   1.438       .  S
C1164      N1181   1.438       .  S
C1165      N1167   1.438       .  S
C1166      N1188   1.438       .  S
N1167      C1171   1.369       .  A
N1167      C1168   1.355       .  A
C1168      C1169   1.381       .  A
C1169      C1170   1.372       .  A
C1169      H1172   1.083       .  S
C1170      C1171   1.386       .  A
C1170      H2373   1.083       .  S
C1171      C2329   1.501       .  S
H1173      C2370   1.083   1_455  S
N1174      C1178   1.369       .  A
N1174      C1175   1.355       .  A
C1175      C1176   1.381       .  A
C1176      C1177   1.372       .  A
C1176      H1179   1.083       .  S
C1177      C1178   1.386       .  A
C1177      H2380   1.083       .  S
C1178      C2336   1.501       .  S
H1180      C2377   1.083   1_455  S
N1181      C1185   1.369       .  A
N1181      C1182   1.355       .  A
C1182      C1183   1.381       .  A
C1183      C1184   1.372       .  A
C1183      H1186   1.083       .  S
C1184      C1185   1.386       .  A
C1184      H2387   1.083       .  S
C1185      C2343   1.501       .  S
H1187      C2384   1.083   1_455  S
N1188      C1192   1.369       .  A
N1188      C1189   1.355       .  A
C1189      C1190   1.381       .  A
C1190      C1191   1.372       .  A
C1190      H1193   1.083       .  S
C1191      C1192   1.386       .  A
C1191      H2394   1.083       .  S
C1192      C2350   1.501       .  S
H1194      C2391   1.083   1_455  S
C1195      N1196   1.359       .  A
C1195      N1200   1.358       .  A
N1196      C1197   1.358       .  A
C1197      N1198   1.359       .  A
N1198      C1199   1.358       .  A
C1199      N1200   1.359       .  A
C1201      N1202   1.358       .  A
C1201      N1206   1.359       .  A
C1201      C1489   1.475       .  S
N1202      C1203   1.359       .  A
C1203      N1204   1.358       .  A
C1203      C1315   1.475       .  S
N1204      C1205   1.359       .  A
C1205      N1206   1.358       .  A
C1205      C1399   1.475       .  S
C1207      N1208   1.358       .  A
C1207      N1212   1.359       .  A
C1207      C1378   1.475       .  S
N1208      C1209   1.359       .  A
C1209      N1210   1.358       .  A
C1209      C1433   1.475       .  S
N1210      C1211   1.359       .  A
C1211      N1212   1.358       .  A
C1211      C1259   1.475       .  S
C1213      N1214   1.359       .  A
C1213      N1218   1.358       .  A
C1213      C1482   1.475       .  S
N1214      C1215   1.358       .  A
C1215      N1216   1.359       .  A
C1215      C1308   1.475       .  S
N1216      C1217   1.358       .  A
C1217      N1218   1.359       .  A
C1217      C1357   1.475       .  S
C1219      N1220   1.358       .  A
C1219      N1224   1.359       .  A
C1219      C1294   1.475       .  S
N1220      C1221   1.359       .  A
C1221      N1222   1.358       .  A
C1221      C1350   1.475       .  S
N1222      C1223   1.359       .  A
C1223      N1224   1.358       .  A
C1223      C1440   1.475       .  S
C1225      N1226   1.358       .  A
C1225      N1230   1.359       .  A
C1225      C1392   1.475       .  S
N1226      C1227   1.359       .  A
C1227      N1228   1.358       .  A
C1227      C1301   1.475       .  S
N1228      C1229   1.359       .  A
C1229      N1230   1.358       .  A
C1229      C1447   1.475       .  S
C1231      N1232   1.358       .  A
C1231      N1236   1.359       .  A
C1231      C1468   1.475       .  S
N1232      C1233   1.359       .  A
C1233      N1234   1.358       .  A
C1233      C1266   1.475       .  S
N1234      C1235   1.359       .  A
C1235      N1236   1.358       .  A
C1235      C1343   1.475       .  S
O1237     Ni1245   1.906       .  S
O1237      C1247   1.265       .  A
O1238     Ni1245   1.906       .  S
O1238      C1248   1.265       .  A
O1239     Ni1245   1.906       .  S
O1239      C1249   1.265       .  A
O1240     Ni1245   1.906       .  S
O1240      C1250   1.265       .  A
O1241     Ni1246   1.944       .  S
O1241      C1250   1.289       .  A
O1242     Ni1246   1.944       .  S
O1242      C1249   1.289       .  A
O1243     Ni1246   1.944       .  S
O1243      C1248   1.289       .  A
O1244     Ni1246   1.944       .  S
O1244      C1247   1.289       .  A
Ni1245    Ni1246   2.319       .  S
C1247      N1251   1.438       .  S
C1248      N1272   1.438       .  S
C1249      N1265   1.438       .  S
C1250      N1258   1.438       .  S
N1251      C1255   1.369       .  A
N1251      C1252   1.355       .  A
C1252      C1499   1.475       .  S
C1252      C1253   1.381       .  A
C1253      C1254   1.372       .  A
C1253      H1256   1.083       .  S
C1254      C1255   1.386       .  A
C1254      H1257   1.083       .  S
C1255      C1597   1.501   1_554  S
N1258      C1262   1.369       .  A
N1258      C1259   1.355       .  A
C1259      C1260   1.381       .  A
C1260      C1261   1.372       .  A
C1260      H1263   1.083       .  S
C1261      C1262   1.386       .  A
C1261      H1264   1.083       .  S
C1262      C1604   1.501   1_554  S
N1265      C1269   1.369       .  A
N1265      C1266   1.355       .  A
C1266      C1267   1.381       .  A
C1267      C1268   1.372       .  A
C1267      H1270   1.083       .  S
C1268      C1269   1.386       .  A
C1268      H1271   1.083       .  S
C1269      C1611   1.501   1_554  S
N1272      C1276   1.369       .  A
N1272      C1273   1.355       .  A
C1273      C1407   1.475       .  S
C1273      C1274   1.381       .  A
C1274      C1275   1.372       .  A
C1274      H1277   1.083       .  S
C1275      C1276   1.386       .  A
C1275      H1278   1.083       .  S
C1276      C1618   1.501   1_554  S
O1279     Ni1287   1.944       .  S
O1279      C1289   1.289       .  A
O1280     Ni1287   1.944       .  S
O1280      C1290   1.289       .  A
O1281     Ni1287   1.944       .  S
O1281      C1291   1.289       .  A
O1282     Ni1287   1.944       .  S
O1282      C1292   1.289       .  A
O1283     Ni1288   1.906       .  S
O1283      C1292   1.265       .  A
O1284     Ni1288   1.906       .  S
O1284      C1291   1.265       .  A
O1285     Ni1288   1.906       .  S
O1285      C1290   1.265       .  A
O1286     Ni1288   1.906       .  S
O1286      C1289   1.265       .  A
Ni1287    Ni1288   2.319       .  S
C1289      N1293   1.438       .  S
C1290      N1314   1.438       .  S
C1291      N1307   1.438       .  S
C1292      N1300   1.438       .  S
N1293      C1297   1.369       .  A
N1293      C1294   1.355       .  A
C1294      C1295   1.381       .  A
C1295      C1296   1.372       .  A
C1295      H1298   1.083       .  S
C1296      C1297   1.386       .  A
C1296      H1599   1.083       .  S
C1297      C1555   1.501       .  S
H1299      C1596   1.083   1_554  S
N1300      C1304   1.369       .  A
N1300      C1301   1.355       .  A
C1301      C1302   1.381       .  A
C1302      C1303   1.372       .  A
C1302      H1305   1.083       .  S
C1303      C1304   1.386       .  A
C1303      H1606   1.083       .  S
C1304      C1562   1.501       .  S
H1306      C1603   1.083   1_554  S
N1307      C1311   1.369       .  A
N1307      C1308   1.355       .  A
C1308      C1309   1.381       .  A
C1309      C1310   1.372       .  A
C1309      H1312   1.083       .  S
C1310      C1311   1.386       .  A
C1310      H1613   1.083       .  S
C1311      C1569   1.501       .  S
H1313      C1610   1.083   1_554  S
N1314      C1318   1.369       .  A
N1314      C1315   1.355       .  A
C1315      C1316   1.381       .  A
C1316      C1317   1.372       .  A
C1316      H1319   1.083       .  S
C1317      C1318   1.386       .  A
C1317      H1620   1.083       .  S
C1318      C1576   1.501       .  S
H1320      C1617   1.083   1_554  S
O1321     Ni1329   1.944       .  S
O1321      C1331   1.289       .  A
O1322     Ni1329   1.944       .  S
O1322      C1332   1.289       .  A
O1323     Ni1329   1.944       .  S
O1323      C1333   1.289       .  A
O1324     Ni1329   1.944       .  S
O1324      C1334   1.289       .  A
O1325     Ni1330   1.906       .  S
O1325      C1334   1.265       .  A
O1326     Ni1330   1.906       .  S
O1326      C1333   1.265       .  A
O1327     Ni1330   1.906       .  S
O1327      C1332   1.265       .  A
O1328     Ni1330   1.906       .  S
O1328      C1331   1.265       .  A
Ni1329    Ni1330   2.319       .  S
C1331      N1335   1.438       .  S
C1332      N1356   1.438       .  S
C1333      N1342   1.438       .  S
C1334      N1349   1.438       .  S
N1335      C1339   1.369       .  A
N1335      C1336   1.355       .  A
C1336      C1495   1.475       .  S
C1336      C1337   1.381       .  A
C1337      C1338   1.372       .  A
C1337      H1340   1.083       .  S
C1338      C1339   1.386       .  A
C1338      H1341   1.083       .  S
C1339      C1981   1.501   1_545  S
N1342      C1346   1.369       .  A
N1342      C1343   1.355       .  A
C1343      C1344   1.381       .  A
C1344      C1345   1.372       .  A
C1344      H1347   1.083       .  S
C1345      C1346   1.386       .  A
C1345      H1348   1.083       .  S
C1346      C1988   1.501   1_545  S
N1349      C1353   1.369       .  A
N1349      C1350   1.355       .  A
C1350      C1351   1.381       .  A
C1351      C1352   1.372       .  A
C1351      H1354   1.083       .  S
C1352      C1353   1.386       .  A
C1352      H1355   1.083       .  S
C1353      C1995   1.501   1_545  S
N1356      C1360   1.369       .  A
N1356      C1357   1.355       .  A
C1357      C1358   1.381       .  A
C1358      C1359   1.372       .  A
C1358      H1361   1.083       .  S
C1359      C1360   1.386       .  A
C1359      H1362   1.083       .  S
C1360      C2002   1.501   1_545  S
O1363     Ni1371   1.944       .  S
O1363      C1373   1.289       .  A
O1364     Ni1371   1.944       .  S
O1364      C1374   1.289       .  A
O1365     Ni1371   1.944       .  S
O1365      C1375   1.289       .  A
O1366     Ni1371   1.944       .  S
O1366      C1376   1.289       .  A
O1367     Ni1372   1.906       .  S
O1367      C1376   1.265       .  A
O1368     Ni1372   1.906       .  S
O1368      C1375   1.265       .  A
O1369     Ni1372   1.906       .  S
O1369      C1374   1.265       .  A
O1370     Ni1372   1.906       .  S
O1370      C1373   1.265       .  A
Ni1371    Ni1372   2.319       .  S
C1373      N1377   1.438       .  S
C1374      N1398   1.438       .  S
C1375      N1391   1.438       .  S
C1376      N1384   1.438       .  S
N1377      C1381   1.369       .  A
N1377      C1378   1.355       .  A
C1378      C1379   1.381       .  A
C1379      C1380   1.372       .  A
C1379      H1382   1.083       .  S
C1380      C1381   1.386       .  A
C1380      H1983   1.083       .  S
C1381      C1939   1.501       .  S
H1383      C1980   1.083   1_545  S
N1384      C1388   1.369       .  A
N1384      C1385   1.355       .  A
C1385      C1409   1.475       .  S
C1385      C1386   1.381       .  A
C1386      C1387   1.372       .  A
C1386      H1389   1.083       .  S
C1387      C1388   1.386       .  A
C1387      H1990   1.083       .  S
C1388      C1946   1.501       .  S
H1390      C1987   1.083   1_545  S
N1391      C1395   1.369       .  A
N1391      C1392   1.355       .  A
C1392      C1393   1.381       .  A
C1393      C1394   1.372       .  A
C1393      H1396   1.083       .  S
C1394      C1395   1.386       .  A
C1394      H1997   1.083       .  S
C1395      C1953   1.501       .  S
H1397      C1994   1.083   1_545  S
N1398      C1402   1.369       .  A
N1398      C1399   1.355       .  A
C1399      C1400   1.381       .  A
C1400      C1401   1.372       .  A
C1400      H1403   1.083       .  S
C1401      C1402   1.386       .  A
C1401      H2004   1.083       .  S
C1402      C1960   1.501       .  S
H1404      C2001   1.083   1_545  S
C1405      N1406   1.359       .  A
C1405      N1410   1.358       .  A
C1405      C1475   1.475       .  S
N1406      C1407   1.358       .  A
C1407      N1408   1.359       .  A
N1408      C1409   1.358       .  A
C1409      N1410   1.359       .  A
O1411     Ni1419   1.944       .  S
O1411      C1421   1.289       .  A
O1412     Ni1419   1.944       .  S
O1412      C1422   1.289       .  A
O1413     Ni1419   1.944       .  S
O1413      C1423   1.289       .  A
O1414     Ni1419   1.944       .  S
O1414      C1424   1.289       .  A
O1415     Ni1420   1.906       .  S
O1415      C1424   1.265       .  A
O1416     Ni1420   1.906       .  S
O1416      C1423   1.265       .  A
O1417     Ni1420   1.906       .  S
O1417      C1422   1.265       .  A
O1418     Ni1420   1.906       .  S
O1418      C1421   1.265       .  A
Ni1419    Ni1420   2.319       .  S
C1421      N1425   1.438       .  S
C1422      N1446   1.438       .  S
C1423      N1439   1.438       .  S
C1424      N1432   1.438       .  S
N1425      C1429   1.369       .  A
N1425      C1426   1.355       .  A
C1426      C1497   1.475       .  S
C1426      C1427   1.381       .  A
C1427      C1428   1.372       .  A
C1427      H1430   1.083       .  S
C1428      C1429   1.386       .  A
C1428      H1431   1.083       .  S
N1432      C1436   1.369       .  A
N1432      C1433   1.355       .  A
C1433      C1434   1.381       .  A
C1434      C1435   1.372       .  A
C1434      H1437   1.083       .  S
C1435      C1436   1.386       .  A
C1435      H1438   1.083       .  S
N1439      C1443   1.369       .  A
N1439      C1440   1.355       .  A
C1440      C1441   1.381       .  A
C1441      C1442   1.372       .  A
C1441      H1444   1.083       .  S
C1442      C1443   1.386       .  A
C1442      H1445   1.083       .  S
N1446      C1450   1.369       .  A
N1446      C1447   1.355       .  A
C1447      C1448   1.381       .  A
C1448      C1449   1.372       .  A
C1448      H1451   1.083       .  S
C1449      C1450   1.386       .  A
C1449      H1452   1.083       .  S
O1453     Ni1461   1.906       .  S
O1453      C1463   1.265       .  A
O1454     Ni1461   1.906       .  S
O1454      C1464   1.265       .  A
O1455     Ni1461   1.906       .  S
O1455      C1465   1.265       .  A
O1456     Ni1461   1.906       .  S
O1456      C1466   1.265       .  A
O1457     Ni1462   1.944       .  S
O1457      C1466   1.289       .  A
O1458     Ni1462   1.944       .  S
O1458      C1465   1.289       .  A
O1459     Ni1462   1.944       .  S
O1459      C1464   1.289       .  A
O1460     Ni1462   1.944       .  S
O1460      C1463   1.289       .  A
Ni1461    Ni1462   2.319       .  S
C1463      N1474   1.438       .  S
C1464      N1481   1.438       .  S
C1465      N1467   1.438       .  S
C1466      N1488   1.438       .  S
N1467      C1471   1.369       .  A
N1467      C1468   1.355       .  A
C1468      C1469   1.381       .  A
C1469      C1470   1.372       .  A
C1469      H1472   1.083       .  S
C1470      C1471   1.386       .  A
N1474      C1478   1.369       .  A
N1474      C1475   1.355       .  A
C1475      C1476   1.381       .  A
C1476      C1477   1.372       .  A
C1476      H1479   1.083       .  S
C1477      C1478   1.386       .  A
N1481      C1485   1.369       .  A
N1481      C1482   1.355       .  A
C1482      C1483   1.381       .  A
C1483      C1484   1.372       .  A
C1483      H1486   1.083       .  S
C1484      C1485   1.386       .  A
N1488      C1492   1.369       .  A
N1488      C1489   1.355       .  A
C1489      C1490   1.381       .  A
C1490      C1491   1.372       .  A
C1490      H1493   1.083       .  S
C1491      C1492   1.386       .  A
C1495      N1496   1.359       .  A
C1495      N1500   1.358       .  A
N1496      C1497   1.358       .  A
C1497      N1498   1.359       .  A
N1498      C1499   1.358       .  A
C1499      N1500   1.359       .  A
C1501      N1502   1.358       .  A
C1501      N1506   1.359       .  A
C1501      C1789   1.475       .  S
N1502      C1503   1.359       .  A
C1503      N1504   1.358       .  A
C1503      C1615   1.475       .  S
N1504      C1505   1.359       .  A
C1505      N1506   1.358       .  A
C1505      C1699   1.475       .  S
C1507      N1508   1.358       .  A
C1507      N1512   1.359       .  A
C1507      C1678   1.475       .  S
N1508      C1509   1.359       .  A
C1509      N1510   1.358       .  A
C1509      C1733   1.475       .  S
N1510      C1511   1.359       .  A
C1511      N1512   1.358       .  A
C1511      C1559   1.475       .  S
C1513      N1514   1.359       .  A
C1513      N1518   1.358       .  A
C1513      C1782   1.475       .  S
N1514      C1515   1.358       .  A
C1515      N1516   1.359       .  A
C1515      C1608   1.475       .  S
N1516      C1517   1.358       .  A
C1517      N1518   1.359       .  A
C1517      C1657   1.475       .  S
C1519      N1520   1.358       .  A
C1519      N1524   1.359       .  A
C1519      C1594   1.475       .  S
N1520      C1521   1.359       .  A
C1521      N1522   1.358       .  A
C1521      C1650   1.475       .  S
N1522      C1523   1.359       .  A
C1523      N1524   1.358       .  A
C1523      C1740   1.475       .  S
C1525      N1526   1.358       .  A
C1525      N1530   1.359       .  A
C1525      C1692   1.475       .  S
N1526      C1527   1.359       .  A
C1527      N1528   1.358       .  A
C1527      C1601   1.475       .  S
N1528      C1529   1.359       .  A
C1529      N1530   1.358       .  A
C1529      C1747   1.475       .  S
C1531      N1532   1.358       .  A
C1531      N1536   1.359       .  A
C1531      C1768   1.475       .  S
N1532      C1533   1.359       .  A
C1533      N1534   1.358       .  A
C1533      C1566   1.475       .  S
N1534      C1535   1.359       .  A
C1535      N1536   1.358       .  A
C1535      C1643   1.475       .  S
O1537     Ni1545   1.906       .  S
O1537      C1547   1.265       .  A
O1538     Ni1545   1.906       .  S
O1538      C1548   1.265       .  A
O1539     Ni1545   1.906       .  S
O1539      C1549   1.265       .  A
O1540     Ni1545   1.906       .  S
O1540      C1550   1.265       .  A
O1541     Ni1546   1.944       .  S
O1541      C1550   1.289       .  A
O1542     Ni1546   1.944       .  S
O1542      C1549   1.289       .  A
O1543     Ni1546   1.944       .  S
O1543      C1548   1.289       .  A
O1544     Ni1546   1.944       .  S
O1544      C1547   1.289       .  A
Ni1545    Ni1546   2.319       .  S
C1547      N1551   1.438       .  S
C1548      N1572   1.438       .  S
C1549      N1565   1.438       .  S
C1550      N1558   1.438       .  S
N1551      C1555   1.369       .  A
N1551      C1552   1.355       .  A
C1552      C1799   1.475       .  S
C1552      C1553   1.381       .  A
C1553      C1554   1.372       .  A
C1553      H1556   1.083       .  S
C1554      C1555   1.386       .  A
C1554      H1557   1.083       .  S
N1558      C1562   1.369       .  A
N1558      C1559   1.355       .  A
C1559      C1560   1.381       .  A
C1560      C1561   1.372       .  A
C1560      H1563   1.083       .  S
C1561      C1562   1.386       .  A
C1561      H1564   1.083       .  S
N1565      C1569   1.369       .  A
N1565      C1566   1.355       .  A
C1566      C1567   1.381       .  A
C1567      C1568   1.372       .  A
C1567      H1570   1.083       .  S
C1568      C1569   1.386       .  A
C1568      H1571   1.083       .  S
N1572      C1576   1.369       .  A
N1572      C1573   1.355       .  A
C1573      C1707   1.475       .  S
C1573      C1574   1.381       .  A
C1574      C1575   1.372       .  A
C1574      H1577   1.083       .  S
C1575      C1576   1.386       .  A
C1575      H1578   1.083       .  S
O1579     Ni1587   1.944       .  S
O1579      C1589   1.289       .  A
O1580     Ni1587   1.944       .  S
O1580      C1590   1.289       .  A
O1581     Ni1587   1.944       .  S
O1581      C1591   1.289       .  A
O1582     Ni1587   1.944       .  S
O1582      C1592   1.289       .  A
O1583     Ni1588   1.906       .  S
O1583      C1592   1.265       .  A
O1584     Ni1588   1.906       .  S
O1584      C1591   1.265       .  A
O1585     Ni1588   1.906       .  S
O1585      C1590   1.265       .  A
O1586     Ni1588   1.906       .  S
O1586      C1589   1.265       .  A
Ni1587    Ni1588   2.319       .  S
C1589      N1593   1.438       .  S
C1590      N1614   1.438       .  S
C1591      N1607   1.438       .  S
C1592      N1600   1.438       .  S
N1593      C1597   1.369       .  A
N1593      C1594   1.355       .  A
C1594      C1595   1.381       .  A
C1595      C1596   1.372       .  A
C1595      H1598   1.083       .  S
C1596      C1597   1.386       .  A
N1600      C1604   1.369       .  A
N1600      C1601   1.355       .  A
C1601      C1602   1.381       .  A
C1602      C1603   1.372       .  A
C1602      H1605   1.083       .  S
C1603      C1604   1.386       .  A
N1607      C1611   1.369       .  A
N1607      C1608   1.355       .  A
C1608      C1609   1.381       .  A
C1609      C1610   1.372       .  A
C1609      H1612   1.083       .  S
C1610      C1611   1.386       .  A
N1614      C1618   1.369       .  A
N1614      C1615   1.355       .  A
C1615      C1616   1.381       .  A
C1616      C1617   1.372       .  A
C1616      H1619   1.083       .  S
C1617      C1618   1.386       .  A
O1621     Ni1629   1.944       .  S
O1621      C1631   1.289       .  A
O1622     Ni1629   1.944       .  S
O1622      C1632   1.289       .  A
O1623     Ni1629   1.944       .  S
O1623      C1633   1.289       .  A
O1624     Ni1629   1.944       .  S
O1624      C1634   1.289       .  A
O1625     Ni1630   1.906       .  S
O1625      C1634   1.265       .  A
O1626     Ni1630   1.906       .  S
O1626      C1633   1.265       .  A
O1627     Ni1630   1.906       .  S
O1627      C1632   1.265       .  A
O1628     Ni1630   1.906       .  S
O1628      C1631   1.265       .  A
Ni1629    Ni1630   2.319       .  S
C1631      N1635   1.438       .  S
C1632      N1656   1.438       .  S
C1633      N1642   1.438       .  S
C1634      N1649   1.438       .  S
N1635      C1639   1.369       .  A
N1635      C1636   1.355       .  A
C1636      C1795   1.475       .  S
C1636      C1637   1.381       .  A
C1637      C1638   1.372       .  A
C1637      H1640   1.083       .  S
C1638      C1639   1.386       .  A
C1638      H1641   1.083       .  S
C1639      C2281   1.501   1_545  S
N1642      C1646   1.369       .  A
N1642      C1643   1.355       .  A
C1643      C1644   1.381       .  A
C1644      C1645   1.372       .  A
C1644      H1647   1.083       .  S
C1645      C1646   1.386       .  A
C1645      H1648   1.083       .  S
C1646      C2288   1.501   1_545  S
N1649      C1653   1.369       .  A
N1649      C1650   1.355       .  A
C1650      C1651   1.381       .  A
C1651      C1652   1.372       .  A
C1651      H1654   1.083       .  S
C1652      C1653   1.386       .  A
C1652      H1655   1.083       .  S
C1653      C2295   1.501   1_545  S
N1656      C1660   1.369       .  A
N1656      C1657   1.355       .  A
C1657      C1658   1.381       .  A
C1658      C1659   1.372       .  A
C1658      H1661   1.083       .  S
C1659      C1660   1.386       .  A
C1659      H1662   1.083       .  S
C1660      C2302   1.501   1_545  S
O1663     Ni1671   1.944       .  S
O1663      C1673   1.289       .  A
O1664     Ni1671   1.944       .  S
O1664      C1674   1.289       .  A
O1665     Ni1671   1.944       .  S
O1665      C1675   1.289       .  A
O1666     Ni1671   1.944       .  S
O1666      C1676   1.289       .  A
O1667     Ni1672   1.906       .  S
O1667      C1676   1.265       .  A
O1668     Ni1672   1.906       .  S
O1668      C1675   1.265       .  A
O1669     Ni1672   1.906       .  S
O1669      C1674   1.265       .  A
O1670     Ni1672   1.906       .  S
O1670      C1673   1.265       .  A
Ni1671    Ni1672   2.319       .  S
C1673      N1677   1.438       .  S
C1674      N1698   1.438       .  S
C1675      N1691   1.438       .  S
C1676      N1684   1.438       .  S
N1677      C1681   1.369       .  A
N1677      C1678   1.355       .  A
C1678      C1679   1.381       .  A
C1679      C1680   1.372       .  A
C1679      H1682   1.083       .  S
C1680      C1681   1.386       .  A
C1680      H2283   1.083       .  S
C1681      C2239   1.501       .  S
H1683      C2280   1.083   1_545  S
N1684      C1688   1.369       .  A
N1684      C1685   1.355       .  A
C1685      C1709   1.475       .  S
C1685      C1686   1.381       .  A
C1686      C1687   1.372       .  A
C1686      H1689   1.083       .  S
C1687      C1688   1.386       .  A
C1687      H2290   1.083       .  S
C1688      C2246   1.501       .  S
H1690      C2287   1.083   1_545  S
N1691      C1695   1.369       .  A
N1691      C1692   1.355       .  A
C1692      C1693   1.381       .  A
C1693      C1694   1.372       .  A
C1693      H1696   1.083       .  S
C1694      C1695   1.386       .  A
C1694      H2297   1.083       .  S
C1695      C2253   1.501       .  S
H1697      C2294   1.083   1_545  S
N1698      C1702   1.369       .  A
N1698      C1699   1.355       .  A
C1699      C1700   1.381       .  A
C1700      C1701   1.372       .  A
C1700      H1703   1.083       .  S
C1701      C1702   1.386       .  A
C1701      H2304   1.083       .  S
C1702      C2260   1.501       .  S
H1704      C2301   1.083   1_545  S
C1705      N1706   1.359       .  A
C1705      N1710   1.358       .  A
C1705      C1775   1.475       .  S
N1706      C1707   1.358       .  A
C1707      N1708   1.359       .  A
N1708      C1709   1.358       .  A
C1709      N1710   1.359       .  A
O1711     Ni1719   1.944       .  S
O1711      C1721   1.289       .  A
O1712     Ni1719   1.944       .  S
O1712      C1722   1.289       .  A
O1713     Ni1719   1.944       .  S
O1713      C1723   1.289       .  A
O1714     Ni1719   1.944       .  S
O1714      C1724   1.289       .  A
O1715     Ni1720   1.906       .  S
O1715      C1724   1.265       .  A
O1716     Ni1720   1.906       .  S
O1716      C1723   1.265       .  A
O1717     Ni1720   1.906       .  S
O1717      C1722   1.265       .  A
O1718     Ni1720   1.906       .  S
O1718      C1721   1.265       .  A
Ni1719    Ni1720   2.319       .  S
C1721      N1725   1.438       .  S
C1722      N1746   1.438       .  S
C1723      N1739   1.438       .  S
C1724      N1732   1.438       .  S
N1725      C1729   1.369       .  A
N1725      C1726   1.355       .  A
C1726      C1797   1.475       .  S
C1726      C1727   1.381       .  A
C1727      C1728   1.372       .  A
C1727      H1730   1.083       .  S
C1728      C1729   1.386       .  A
C1728      H1731   1.083       .  S
N1732      C1736   1.369       .  A
N1732      C1733   1.355       .  A
C1733      C1734   1.381       .  A
C1734      C1735   1.372       .  A
C1734      H1737   1.083       .  S
C1735      C1736   1.386       .  A
C1735      H1738   1.083       .  S
N1739      C1743   1.369       .  A
N1739      C1740   1.355       .  A
C1740      C1741   1.381       .  A
C1741      C1742   1.372       .  A
C1741      H1744   1.083       .  S
C1742      C1743   1.386       .  A
C1742      H1745   1.083       .  S
N1746      C1750   1.369       .  A
N1746      C1747   1.355       .  A
C1747      C1748   1.381       .  A
C1748      C1749   1.372       .  A
C1748      H1751   1.083       .  S
C1749      C1750   1.386       .  A
C1749      H1752   1.083       .  S
O1753     Ni1761   1.906       .  S
O1753      C1763   1.265       .  A
O1754     Ni1761   1.906       .  S
O1754      C1764   1.265       .  A
O1755     Ni1761   1.906       .  S
O1755      C1765   1.265       .  A
O1756     Ni1761   1.906       .  S
O1756      C1766   1.265       .  A
O1757     Ni1762   1.944       .  S
O1757      C1766   1.289       .  A
O1758     Ni1762   1.944       .  S
O1758      C1765   1.289       .  A
O1759     Ni1762   1.944       .  S
O1759      C1764   1.289       .  A
O1760     Ni1762   1.944       .  S
O1760      C1763   1.289       .  A
Ni1761    Ni1762   2.319       .  S
C1763      N1774   1.438       .  S
C1764      N1781   1.438       .  S
C1765      N1767   1.438       .  S
C1766      N1788   1.438       .  S
N1767      C1771   1.369       .  A
N1767      C1768   1.355       .  A
C1768      C1769   1.381       .  A
C1769      C1770   1.372       .  A
C1769      H1772   1.083       .  S
C1770      C1771   1.386       .  A
N1774      C1778   1.369       .  A
N1774      C1775   1.355       .  A
C1775      C1776   1.381       .  A
C1776      C1777   1.372       .  A
C1776      H1779   1.083       .  S
C1777      C1778   1.386       .  A
N1781      C1785   1.369       .  A
N1781      C1782   1.355       .  A
C1782      C1783   1.381       .  A
C1783      C1784   1.372       .  A
C1783      H1786   1.083       .  S
C1784      C1785   1.386       .  A
N1788      C1792   1.369       .  A
N1788      C1789   1.355       .  A
C1789      C1790   1.381       .  A
C1790      C1791   1.372       .  A
C1790      H1793   1.083       .  S
C1791      C1792   1.386       .  A
C1795      N1796   1.359       .  A
C1795      N1800   1.358       .  A
N1796      C1797   1.358       .  A
C1797      N1798   1.359       .  A
N1798      C1799   1.358       .  A
C1799      N1800   1.359       .  A
C1801      N1802   1.358       .  A
C1801      N1806   1.359       .  A
C1801      C2089   1.475       .  S
N1802      C1803   1.359       .  A
C1803      N1804   1.358       .  A
C1803      C1915   1.475       .  S
N1804      C1805   1.359       .  A
C1805      N1806   1.358       .  A
C1805      C1999   1.475       .  S
C1807      N1808   1.358       .  A
C1807      N1812   1.359       .  A
C1807      C1978   1.475       .  S
N1808      C1809   1.359       .  A
C1809      N1810   1.358       .  A
C1809      C2033   1.475       .  S
N1810      C1811   1.359       .  A
C1811      N1812   1.358       .  A
C1811      C1859   1.475       .  S
C1813      N1814   1.359       .  A
C1813      N1818   1.358       .  A
C1813      C2082   1.475       .  S
N1814      C1815   1.358       .  A
C1815      N1816   1.359       .  A
C1815      C1908   1.475       .  S
N1816      C1817   1.358       .  A
C1817      N1818   1.359       .  A
C1817      C1957   1.475       .  S
C1819      N1820   1.358       .  A
C1819      N1824   1.359       .  A
C1819      C1894   1.475       .  S
N1820      C1821   1.359       .  A
C1821      N1822   1.358       .  A
C1821      C1950   1.475       .  S
N1822      C1823   1.359       .  A
C1823      N1824   1.358       .  A
C1823      C2040   1.475       .  S
C1825      N1826   1.358       .  A
C1825      N1830   1.359       .  A
C1825      C1992   1.475       .  S
N1826      C1827   1.359       .  A
C1827      N1828   1.358       .  A
C1827      C1901   1.475       .  S
N1828      C1829   1.359       .  A
C1829      N1830   1.358       .  A
C1829      C2047   1.475       .  S
C1831      N1832   1.358       .  A
C1831      N1836   1.359       .  A
C1831      C2068   1.475       .  S
N1832      C1833   1.359       .  A
C1833      N1834   1.358       .  A
C1833      C1866   1.475       .  S
N1834      C1835   1.359       .  A
C1835      N1836   1.358       .  A
C1835      C1943   1.475       .  S
O1837     Ni1845   1.906       .  S
O1837      C1847   1.265       .  A
O1838     Ni1845   1.906       .  S
O1838      C1848   1.265       .  A
O1839     Ni1845   1.906       .  S
O1839      C1849   1.265       .  A
O1840     Ni1845   1.906       .  S
O1840      C1850   1.265       .  A
O1841     Ni1846   1.944       .  S
O1841      C1850   1.289       .  A
O1842     Ni1846   1.944       .  S
O1842      C1849   1.289       .  A
O1843     Ni1846   1.944       .  S
O1843      C1848   1.289       .  A
O1844     Ni1846   1.944       .  S
O1844      C1847   1.289       .  A
Ni1845    Ni1846   2.319       .  S
C1847      N1851   1.438       .  S
C1848      N1872   1.438       .  S
C1849      N1865   1.438       .  S
C1850      N1858   1.438       .  S
N1851      C1855   1.369       .  A
N1851      C1852   1.355       .  A
C1852      C2099   1.475       .  S
C1852      C1853   1.381       .  A
C1853      C1854   1.372       .  A
C1853      H1856   1.083       .  S
C1854      C1855   1.386       .  A
C1854      H1857   1.083       .  S
C1855      C2197   1.501   1_554  S
N1858      C1862   1.369       .  A
N1858      C1859   1.355       .  A
C1859      C1860   1.381       .  A
C1860      C1861   1.372       .  A
C1860      H1863   1.083       .  S
C1861      C1862   1.386       .  A
C1861      H1864   1.083       .  S
C1862      C2204   1.501   1_554  S
N1865      C1869   1.369       .  A
N1865      C1866   1.355       .  A
C1866      C1867   1.381       .  A
C1867      C1868   1.372       .  A
C1867      H1870   1.083       .  S
C1868      C1869   1.386       .  A
C1868      H1871   1.083       .  S
C1869      C2211   1.501   1_554  S
N1872      C1876   1.369       .  A
N1872      C1873   1.355       .  A
C1873      C2007   1.475       .  S
C1873      C1874   1.381       .  A
C1874      C1875   1.372       .  A
C1874      H1877   1.083       .  S
C1875      C1876   1.386       .  A
C1875      H1878   1.083       .  S
C1876      C2218   1.501   1_554  S
O1879     Ni1887   1.944       .  S
O1879      C1889   1.289       .  A
O1880     Ni1887   1.944       .  S
O1880      C1890   1.289       .  A
O1881     Ni1887   1.944       .  S
O1881      C1891   1.289       .  A
O1882     Ni1887   1.944       .  S
O1882      C1892   1.289       .  A
O1883     Ni1888   1.906       .  S
O1883      C1892   1.265       .  A
O1884     Ni1888   1.906       .  S
O1884      C1891   1.265       .  A
O1885     Ni1888   1.906       .  S
O1885      C1890   1.265       .  A
O1886     Ni1888   1.906       .  S
O1886      C1889   1.265       .  A
Ni1887    Ni1888   2.319       .  S
C1889      N1893   1.438       .  S
C1890      N1914   1.438       .  S
C1891      N1907   1.438       .  S
C1892      N1900   1.438       .  S
N1893      C1897   1.369       .  A
N1893      C1894   1.355       .  A
C1894      C1895   1.381       .  A
C1895      C1896   1.372       .  A
C1895      H1898   1.083       .  S
C1896      C1897   1.386       .  A
C1896      H2199   1.083       .  S
C1897      C2155   1.501       .  S
H1899      C2196   1.083   1_554  S
N1900      C1904   1.369       .  A
N1900      C1901   1.355       .  A
C1901      C1902   1.381       .  A
C1902      C1903   1.372       .  A
C1902      H1905   1.083       .  S
C1903      C1904   1.386       .  A
C1903      H2206   1.083       .  S
C1904      C2162   1.501       .  S
H1906      C2203   1.083   1_554  S
N1907      C1911   1.369       .  A
N1907      C1908   1.355       .  A
C1908      C1909   1.381       .  A
C1909      C1910   1.372       .  A
C1909      H1912   1.083       .  S
C1910      C1911   1.386       .  A
C1910      H2213   1.083       .  S
C1911      C2169   1.501       .  S
H1913      C2210   1.083   1_554  S
N1914      C1918   1.369       .  A
N1914      C1915   1.355       .  A
C1915      C1916   1.381       .  A
C1916      C1917   1.372       .  A
C1916      H1919   1.083       .  S
C1917      C1918   1.386       .  A
C1917      H2220   1.083       .  S
C1918      C2176   1.501       .  S
H1920      C2217   1.083   1_554  S
O1921     Ni1929   1.944       .  S
O1921      C1931   1.289       .  A
O1922     Ni1929   1.944       .  S
O1922      C1932   1.289       .  A
O1923     Ni1929   1.944       .  S
O1923      C1933   1.289       .  A
O1924     Ni1929   1.944       .  S
O1924      C1934   1.289       .  A
O1925     Ni1930   1.906       .  S
O1925      C1934   1.265       .  A
O1926     Ni1930   1.906       .  S
O1926      C1933   1.265       .  A
O1927     Ni1930   1.906       .  S
O1927      C1932   1.265       .  A
O1928     Ni1930   1.906       .  S
O1928      C1931   1.265       .  A
Ni1929    Ni1930   2.319       .  S
C1931      N1935   1.438       .  S
C1932      N1956   1.438       .  S
C1933      N1942   1.438       .  S
C1934      N1949   1.438       .  S
N1935      C1939   1.369       .  A
N1935      C1936   1.355       .  A
C1936      C2095   1.475       .  S
C1936      C1937   1.381       .  A
C1937      C1938   1.372       .  A
C1937      H1940   1.083       .  S
C1938      C1939   1.386       .  A
C1938      H1941   1.083       .  S
N1942      C1946   1.369       .  A
N1942      C1943   1.355       .  A
C1943      C1944   1.381       .  A
C1944      C1945   1.372       .  A
C1944      H1947   1.083       .  S
C1945      C1946   1.386       .  A
C1945      H1948   1.083       .  S
N1949      C1953   1.369       .  A
N1949      C1950   1.355       .  A
C1950      C1951   1.381       .  A
C1951      C1952   1.372       .  A
C1951      H1954   1.083       .  S
C1952      C1953   1.386       .  A
C1952      H1955   1.083       .  S
N1956      C1960   1.369       .  A
N1956      C1957   1.355       .  A
C1957      C1958   1.381       .  A
C1958      C1959   1.372       .  A
C1958      H1961   1.083       .  S
C1959      C1960   1.386       .  A
C1959      H1962   1.083       .  S
O1963     Ni1971   1.944       .  S
O1963      C1973   1.289       .  A
O1964     Ni1971   1.944       .  S
O1964      C1974   1.289       .  A
O1965     Ni1971   1.944       .  S
O1965      C1975   1.289       .  A
O1966     Ni1971   1.944       .  S
O1966      C1976   1.289       .  A
O1967     Ni1972   1.906       .  S
O1967      C1976   1.265       .  A
O1968     Ni1972   1.906       .  S
O1968      C1975   1.265       .  A
O1969     Ni1972   1.906       .  S
O1969      C1974   1.265       .  A
O1970     Ni1972   1.906       .  S
O1970      C1973   1.265       .  A
Ni1971    Ni1972   2.319       .  S
C1973      N1977   1.438       .  S
C1974      N1998   1.438       .  S
C1975      N1991   1.438       .  S
C1976      N1984   1.438       .  S
N1977      C1981   1.369       .  A
N1977      C1978   1.355       .  A
C1978      C1979   1.381       .  A
C1979      C1980   1.372       .  A
C1979      H1982   1.083       .  S
C1980      C1981   1.386       .  A
N1984      C1988   1.369       .  A
N1984      C1985   1.355       .  A
C1985      C2009   1.475       .  S
C1985      C1986   1.381       .  A
C1986      C1987   1.372       .  A
C1986      H1989   1.083       .  S
C1987      C1988   1.386       .  A
N1991      C1995   1.369       .  A
N1991      C1992   1.355       .  A
C1992      C1993   1.381       .  A
C1993      C1994   1.372       .  A
C1993      H1996   1.083       .  S
C1994      C1995   1.386       .  A
N1998      C2002   1.369       .  A
N1998      C1999   1.355       .  A
C1999      C2000   1.381       .  A
C2000      C2001   1.372       .  A
C2000      H2003   1.083       .  S
C2001      C2002   1.386       .  A
C2005      N2006   1.359       .  A
C2005      N2010   1.358       .  A
C2005      C2075   1.475       .  S
N2006      C2007   1.358       .  A
C2007      N2008   1.359       .  A
N2008      C2009   1.358       .  A
C2009      N2010   1.359       .  A
O2011     Ni2019   1.944       .  S
O2011      C2021   1.289       .  A
O2012     Ni2019   1.944       .  S
O2012      C2022   1.289       .  A
O2013     Ni2019   1.944       .  S
O2013      C2023   1.289       .  A
O2014     Ni2019   1.944       .  S
O2014      C2024   1.289       .  A
O2015     Ni2020   1.906       .  S
O2015      C2024   1.265       .  A
O2016     Ni2020   1.906       .  S
O2016      C2023   1.265       .  A
O2017     Ni2020   1.906       .  S
O2017      C2022   1.265       .  A
O2018     Ni2020   1.906       .  S
O2018      C2021   1.265       .  A
Ni2019    Ni2020   2.319       .  S
C2021      N2025   1.438       .  S
C2022      N2046   1.438       .  S
C2023      N2039   1.438       .  S
C2024      N2032   1.438       .  S
N2025      C2029   1.369       .  A
N2025      C2026   1.355       .  A
C2026      C2097   1.475       .  S
C2026      C2027   1.381       .  A
C2027      C2028   1.372       .  A
C2027      H2030   1.083       .  S
C2028      C2029   1.386       .  A
C2028      H2031   1.083       .  S
N2032      C2036   1.369       .  A
N2032      C2033   1.355       .  A
C2033      C2034   1.381       .  A
C2034      C2035   1.372       .  A
C2034      H2037   1.083       .  S
C2035      C2036   1.386       .  A
C2035      H2038   1.083       .  S
N2039      C2043   1.369       .  A
N2039      C2040   1.355       .  A
C2040      C2041   1.381       .  A
C2041      C2042   1.372       .  A
C2041      H2044   1.083       .  S
C2042      C2043   1.386       .  A
C2042      H2045   1.083       .  S
N2046      C2050   1.369       .  A
N2046      C2047   1.355       .  A
C2047      C2048   1.381       .  A
C2048      C2049   1.372       .  A
C2048      H2051   1.083       .  S
C2049      C2050   1.386       .  A
C2049      H2052   1.083       .  S
O2053     Ni2061   1.906       .  S
O2053      C2063   1.265       .  A
O2054     Ni2061   1.906       .  S
O2054      C2064   1.265       .  A
O2055     Ni2061   1.906       .  S
O2055      C2065   1.265       .  A
O2056     Ni2061   1.906       .  S
O2056      C2066   1.265       .  A
O2057     Ni2062   1.944       .  S
O2057      C2066   1.289       .  A
O2058     Ni2062   1.944       .  S
O2058      C2065   1.289       .  A
O2059     Ni2062   1.944       .  S
O2059      C2064   1.289       .  A
O2060     Ni2062   1.944       .  S
O2060      C2063   1.289       .  A
Ni2061    Ni2062   2.319       .  S
C2063      N2074   1.438       .  S
C2064      N2081   1.438       .  S
C2065      N2067   1.438       .  S
C2066      N2088   1.438       .  S
N2067      C2071   1.369       .  A
N2067      C2068   1.355       .  A
C2068      C2069   1.381       .  A
C2069      C2070   1.372       .  A
C2069      H2072   1.083       .  S
C2070      C2071   1.386       .  A
N2074      C2078   1.369       .  A
N2074      C2075   1.355       .  A
C2075      C2076   1.381       .  A
C2076      C2077   1.372       .  A
C2076      H2079   1.083       .  S
C2077      C2078   1.386       .  A
N2081      C2085   1.369       .  A
N2081      C2082   1.355       .  A
C2082      C2083   1.381       .  A
C2083      C2084   1.372       .  A
C2083      H2086   1.083       .  S
C2084      C2085   1.386       .  A
N2088      C2092   1.369       .  A
N2088      C2089   1.355       .  A
C2089      C2090   1.381       .  A
C2090      C2091   1.372       .  A
C2090      H2093   1.083       .  S
C2091      C2092   1.386       .  A
C2095      N2096   1.359       .  A
C2095      N2100   1.358       .  A
N2096      C2097   1.358       .  A
C2097      N2098   1.359       .  A
N2098      C2099   1.358       .  A
C2099      N2100   1.359       .  A
C2101      N2102   1.358       .  A
C2101      N2106   1.359       .  A
C2101      C2389   1.475       .  S
N2102      C2103   1.359       .  A
C2103      N2104   1.358       .  A
C2103      C2215   1.475       .  S
N2104      C2105   1.359       .  A
C2105      N2106   1.358       .  A
C2105      C2299   1.475       .  S
C2107      N2108   1.358       .  A
C2107      N2112   1.359       .  A
C2107      C2278   1.475       .  S
N2108      C2109   1.359       .  A
C2109      N2110   1.358       .  A
C2109      C2333   1.475       .  S
N2110      C2111   1.359       .  A
C2111      N2112   1.358       .  A
C2111      C2159   1.475       .  S
C2113      N2114   1.359       .  A
C2113      N2118   1.358       .  A
C2113      C2382   1.475       .  S
N2114      C2115   1.358       .  A
C2115      N2116   1.359       .  A
C2115      C2208   1.475       .  S
N2116      C2117   1.358       .  A
C2117      N2118   1.359       .  A
C2117      C2257   1.475       .  S
C2119      N2120   1.358       .  A
C2119      N2124   1.359       .  A
C2119      C2194   1.475       .  S
N2120      C2121   1.359       .  A
C2121      N2122   1.358       .  A
C2121      C2250   1.475       .  S
N2122      C2123   1.359       .  A
C2123      N2124   1.358       .  A
C2123      C2340   1.475       .  S
C2125      N2126   1.358       .  A
C2125      N2130   1.359       .  A
C2125      C2292   1.475       .  S
N2126      C2127   1.359       .  A
C2127      N2128   1.358       .  A
C2127      C2201   1.475       .  S
N2128      C2129   1.359       .  A
C2129      N2130   1.358       .  A
C2129      C2347   1.475       .  S
C2131      N2132   1.358       .  A
C2131      N2136   1.359       .  A
C2131      C2368   1.475       .  S
N2132      C2133   1.359       .  A
C2133      N2134   1.358       .  A
C2133      C2166   1.475       .  S
N2134      C2135   1.359       .  A
C2135      N2136   1.358       .  A
C2135      C2243   1.475       .  S
O2137     Ni2145   1.906       .  S
O2137      C2147   1.265       .  A
O2138     Ni2145   1.906       .  S
O2138      C2148   1.265       .  A
O2139     Ni2145   1.906       .  S
O2139      C2149   1.265       .  A
O2140     Ni2145   1.906       .  S
O2140      C2150   1.265       .  A
O2141     Ni2146   1.944       .  S
O2141      C2150   1.289       .  A
O2142     Ni2146   1.944       .  S
O2142      C2149   1.289       .  A
O2143     Ni2146   1.944       .  S
O2143      C2148   1.289       .  A
O2144     Ni2146   1.944       .  S
O2144      C2147   1.289       .  A
Ni2145    Ni2146   2.319       .  S
C2147      N2151   1.438       .  S
C2148      N2172   1.438       .  S
C2149      N2165   1.438       .  S
C2150      N2158   1.438       .  S
N2151      C2155   1.369       .  A
N2151      C2152   1.355       .  A
C2152      C2399   1.475       .  S
C2152      C2153   1.381       .  A
C2153      C2154   1.372       .  A
C2153      H2156   1.083       .  S
C2154      C2155   1.386       .  A
C2154      H2157   1.083       .  S
N2158      C2162   1.369       .  A
N2158      C2159   1.355       .  A
C2159      C2160   1.381       .  A
C2160      C2161   1.372       .  A
C2160      H2163   1.083       .  S
C2161      C2162   1.386       .  A
C2161      H2164   1.083       .  S
N2165      C2169   1.369       .  A
N2165      C2166   1.355       .  A
C2166      C2167   1.381       .  A
C2167      C2168   1.372       .  A
C2167      H2170   1.083       .  S
C2168      C2169   1.386       .  A
C2168      H2171   1.083       .  S
N2172      C2176   1.369       .  A
N2172      C2173   1.355       .  A
C2173      C2307   1.475       .  S
C2173      C2174   1.381       .  A
C2174      C2175   1.372       .  A
C2174      H2177   1.083       .  S
C2175      C2176   1.386       .  A
C2175      H2178   1.083       .  S
O2179     Ni2187   1.944       .  S
O2179      C2189   1.289       .  A
O2180     Ni2187   1.944       .  S
O2180      C2190   1.289       .  A
O2181     Ni2187   1.944       .  S
O2181      C2191   1.289       .  A
O2182     Ni2187   1.944       .  S
O2182      C2192   1.289       .  A
O2183     Ni2188   1.906       .  S
O2183      C2192   1.265       .  A
O2184     Ni2188   1.906       .  S
O2184      C2191   1.265       .  A
O2185     Ni2188   1.906       .  S
O2185      C2190   1.265       .  A
O2186     Ni2188   1.906       .  S
O2186      C2189   1.265       .  A
Ni2187    Ni2188   2.319       .  S
C2189      N2193   1.438       .  S
C2190      N2214   1.438       .  S
C2191      N2207   1.438       .  S
C2192      N2200   1.438       .  S
N2193      C2197   1.369       .  A
N2193      C2194   1.355       .  A
C2194      C2195   1.381       .  A
C2195      C2196   1.372       .  A
C2195      H2198   1.083       .  S
C2196      C2197   1.386       .  A
N2200      C2204   1.369       .  A
N2200      C2201   1.355       .  A
C2201      C2202   1.381       .  A
C2202      C2203   1.372       .  A
C2202      H2205   1.083       .  S
C2203      C2204   1.386       .  A
N2207      C2211   1.369       .  A
N2207      C2208   1.355       .  A
C2208      C2209   1.381       .  A
C2209      C2210   1.372       .  A
C2209      H2212   1.083       .  S
C2210      C2211   1.386       .  A
N2214      C2218   1.369       .  A
N2214      C2215   1.355       .  A
C2215      C2216   1.381       .  A
C2216      C2217   1.372       .  A
C2216      H2219   1.083       .  S
C2217      C2218   1.386       .  A
O2221     Ni2229   1.944       .  S
O2221      C2231   1.289       .  A
O2222     Ni2229   1.944       .  S
O2222      C2232   1.289       .  A
O2223     Ni2229   1.944       .  S
O2223      C2233   1.289       .  A
O2224     Ni2229   1.944       .  S
O2224      C2234   1.289       .  A
O2225     Ni2230   1.906       .  S
O2225      C2234   1.265       .  A
O2226     Ni2230   1.906       .  S
O2226      C2233   1.265       .  A
O2227     Ni2230   1.906       .  S
O2227      C2232   1.265       .  A
O2228     Ni2230   1.906       .  S
O2228      C2231   1.265       .  A
Ni2229    Ni2230   2.319       .  S
C2231      N2235   1.438       .  S
C2232      N2256   1.438       .  S
C2233      N2242   1.438       .  S
C2234      N2249   1.438       .  S
N2235      C2239   1.369       .  A
N2235      C2236   1.355       .  A
C2236      C2395   1.475       .  S
C2236      C2237   1.381       .  A
C2237      C2238   1.372       .  A
C2237      H2240   1.083       .  S
C2238      C2239   1.386       .  A
C2238      H2241   1.083       .  S
N2242      C2246   1.369       .  A
N2242      C2243   1.355       .  A
C2243      C2244   1.381       .  A
C2244      C2245   1.372       .  A
C2244      H2247   1.083       .  S
C2245      C2246   1.386       .  A
C2245      H2248   1.083       .  S
N2249      C2253   1.369       .  A
N2249      C2250   1.355       .  A
C2250      C2251   1.381       .  A
C2251      C2252   1.372       .  A
C2251      H2254   1.083       .  S
C2252      C2253   1.386       .  A
C2252      H2255   1.083       .  S
N2256      C2260   1.369       .  A
N2256      C2257   1.355       .  A
C2257      C2258   1.381       .  A
C2258      C2259   1.372       .  A
C2258      H2261   1.083       .  S
C2259      C2260   1.386       .  A
C2259      H2262   1.083       .  S
O2263     Ni2271   1.944       .  S
O2263      C2273   1.289       .  A
O2264     Ni2271   1.944       .  S
O2264      C2274   1.289       .  A
O2265     Ni2271   1.944       .  S
O2265      C2275   1.289       .  A
O2266     Ni2271   1.944       .  S
O2266      C2276   1.289       .  A
O2267     Ni2272   1.906       .  S
O2267      C2276   1.265       .  A
O2268     Ni2272   1.906       .  S
O2268      C2275   1.265       .  A
O2269     Ni2272   1.906       .  S
O2269      C2274   1.265       .  A
O2270     Ni2272   1.906       .  S
O2270      C2273   1.265       .  A
Ni2271    Ni2272   2.319       .  S
C2273      N2277   1.438       .  S
C2274      N2298   1.438       .  S
C2275      N2291   1.438       .  S
C2276      N2284   1.438       .  S
N2277      C2281   1.369       .  A
N2277      C2278   1.355       .  A
C2278      C2279   1.381       .  A
C2279      C2280   1.372       .  A
C2279      H2282   1.083       .  S
C2280      C2281   1.386       .  A
N2284      C2288   1.369       .  A
N2284      C2285   1.355       .  A
C2285      C2309   1.475       .  S
C2285      C2286   1.381       .  A
C2286      C2287   1.372       .  A
C2286      H2289   1.083       .  S
C2287      C2288   1.386       .  A
N2291      C2295   1.369       .  A
N2291      C2292   1.355       .  A
C2292      C2293   1.381       .  A
C2293      C2294   1.372       .  A
C2293      H2296   1.083       .  S
C2294      C2295   1.386       .  A
N2298      C2302   1.369       .  A
N2298      C2299   1.355       .  A
C2299      C2300   1.381       .  A
C2300      C2301   1.372       .  A
C2300      H2303   1.083       .  S
C2301      C2302   1.386       .  A
C2305      N2306   1.359       .  A
C2305      N2310   1.358       .  A
C2305      C2375   1.475       .  S
N2306      C2307   1.358       .  A
C2307      N2308   1.359       .  A
N2308      C2309   1.358       .  A
C2309      N2310   1.359       .  A
O2311     Ni2319   1.944       .  S
O2311      C2321   1.289       .  A
O2312     Ni2319   1.944       .  S
O2312      C2322   1.289       .  A
O2313     Ni2319   1.944       .  S
O2313      C2323   1.289       .  A
O2314     Ni2319   1.944       .  S
O2314      C2324   1.289       .  A
O2315     Ni2320   1.906       .  S
O2315      C2324   1.265       .  A
O2316     Ni2320   1.906       .  S
O2316      C2323   1.265       .  A
O2317     Ni2320   1.906       .  S
O2317      C2322   1.265       .  A
O2318     Ni2320   1.906       .  S
O2318      C2321   1.265       .  A
Ni2319    Ni2320   2.319       .  S
C2321      N2325   1.438       .  S
C2322      N2346   1.438       .  S
C2323      N2339   1.438       .  S
C2324      N2332   1.438       .  S
N2325      C2329   1.369       .  A
N2325      C2326   1.355       .  A
C2326      C2397   1.475       .  S
C2326      C2327   1.381       .  A
C2327      C2328   1.372       .  A
C2327      H2330   1.083       .  S
C2328      C2329   1.386       .  A
C2328      H2331   1.083       .  S
N2332      C2336   1.369       .  A
N2332      C2333   1.355       .  A
C2333      C2334   1.381       .  A
C2334      C2335   1.372       .  A
C2334      H2337   1.083       .  S
C2335      C2336   1.386       .  A
C2335      H2338   1.083       .  S
N2339      C2343   1.369       .  A
N2339      C2340   1.355       .  A
C2340      C2341   1.381       .  A
C2341      C2342   1.372       .  A
C2341      H2344   1.083       .  S
C2342      C2343   1.386       .  A
C2342      H2345   1.083       .  S
N2346      C2350   1.369       .  A
N2346      C2347   1.355       .  A
C2347      C2348   1.381       .  A
C2348      C2349   1.372       .  A
C2348      H2351   1.083       .  S
C2349      C2350   1.386       .  A
C2349      H2352   1.083       .  S
O2353     Ni2361   1.906       .  S
O2353      C2363   1.265       .  A
O2354     Ni2361   1.906       .  S
O2354      C2364   1.265       .  A
O2355     Ni2361   1.906       .  S
O2355      C2365   1.265       .  A
O2356     Ni2361   1.906       .  S
O2356      C2366   1.265       .  A
O2357     Ni2362   1.944       .  S
O2357      C2366   1.289       .  A
O2358     Ni2362   1.944       .  S
O2358      C2365   1.289       .  A
O2359     Ni2362   1.944       .  S
O2359      C2364   1.289       .  A
O2360     Ni2362   1.944       .  S
O2360      C2363   1.289       .  A
Ni2361    Ni2362   2.319       .  S
C2363      N2374   1.438       .  S
C2364      N2381   1.438       .  S
C2365      N2367   1.438       .  S
C2366      N2388   1.438       .  S
N2367      C2371   1.369       .  A
N2367      C2368   1.355       .  A
C2368      C2369   1.381       .  A
C2369      C2370   1.372       .  A
C2369      H2372   1.083       .  S
C2370      C2371   1.386       .  A
N2374      C2378   1.369       .  A
N2374      C2375   1.355       .  A
C2375      C2376   1.381       .  A
C2376      C2377   1.372       .  A
C2376      H2379   1.083       .  S
C2377      C2378   1.386       .  A
N2381      C2385   1.369       .  A
N2381      C2382   1.355       .  A
C2382      C2383   1.381       .  A
C2383      C2384   1.372       .  A
C2383      H2386   1.083       .  S
C2384      C2385   1.386       .  A
N2388      C2392   1.369       .  A
N2388      C2389   1.355       .  A
C2389      C2390   1.381       .  A
C2390      C2391   1.372       .  A
C2390      H2393   1.083       .  S
C2391      C2392   1.386       .  A
C2395      N2396   1.359       .  A
C2395      N2400   1.358       .  A
N2396      C2397   1.358       .  A
C2397      N2398   1.359       .  A
N2398      C2399   1.358       .  A
C2399      N2400   1.359       .  A
