geometry optimzed in LAMMPS
_audit_creation_date              2020-12-01 
_audit_creation_method            'lammps2cif' 
_symmetry_space_group_name_H-M    'P1' 
_symmetry_Int_Tables_number       1 
_symmetry_cell_setting            triclinic 
loop_ 
_symmetry_equiv_pos_as_xyz 
  x,y,z 
_cell_length_a                    36.39724473 
_cell_length_b                    36.43169996531154 
_cell_length_c                    27.951756034670083 
_cell_angle_alpha                 89.6466537326348 
_cell_angle_beta                  90.44470622249243 
_cell_angle_gamma                 120.70282091759955 
loop_ 
_atom_site_label 
_atom_site_type_symbol 
_atom_site_fract_x 
_atom_site_fract_y 
_atom_site_fract_z 
_atom_site_charge 
C1          C  0.24816872  0.47206180  0.25545470     0.80400
N2          N  0.26086793  0.44910798  0.28144739    -0.77900
C3          C  0.24076772  0.40601278  0.27774225     0.82900
N4          N  0.20745596  0.38508607  0.24650442    -0.77800
C5          C  0.19507119  0.40816757  0.21924201     0.83000
N6          N  0.21529591  0.45125986  0.22430647    -0.79600
C7          C  0.39460339  0.31118086  0.49492081     0.80400
N8          N  0.36832398  0.27527867  0.02644341    -0.77900
C9          C  0.32510245  0.25601688  0.02869387     0.82900
N10         N  0.30741273  0.27337703  0.49990007    -0.77800
C11         C  0.33042830  0.30703427  0.46978878     0.83000
N12         N  0.37360942  0.32563863  0.46788522    -0.79600
C13         C  0.25256552  0.47221389  0.49812686     0.80400
N14         N  0.26519738  0.45038878  0.47036423    -0.77900
C15         C  0.24264557  0.40693779  0.46936443     0.82900
N16         N  0.20732679  0.38488953  0.49735625    -0.77800
C17         C  0.19441519  0.40826058  0.02183405     0.83000
N18         N  0.21549013  0.45149005  0.01846010    -0.79600
C19         C  0.95169635  0.32513302  0.24302779     0.78000
N20         N  0.98680223  0.33791781  0.21607200    -0.77900
C21         C  0.00815048  0.31634326  0.21689665     0.82900
N22         N  0.99450292  0.28146473  0.24593141    -0.77800
C23         C  0.95915766  0.26873250  0.27352142     0.83000
N24         N  0.93791453  0.29037417  0.27121902    -0.79600
C25         C  0.94453415  0.31900738  0.00439635     0.80400
N26         N  0.93112952  0.28583332  0.47629217    -0.77900
C27         C  0.95455778  0.26671082  0.47037438     0.82900
N28         N  0.99175309  0.28018448  0.99655126    -0.77800
C29         C  0.00473082  0.31428293  0.02634772     0.83000
N30         N  0.98127629  0.33361260  0.02949898    -0.79600
C31         C  0.78248235  0.47469316  0.52044231     0.03300
C32         C  0.73841906  0.45192997  0.51183810    -0.12800
C33         C  0.71647226  0.47375457  0.50452116     0.00800
C34         C  0.73925933  0.51849573  0.50322410    -0.11400
C35         C  0.78345325  0.54212333  0.51338320     0.03300
C36         C  0.80432799  0.51936484  0.52375835    -0.10800
H37         H  0.72130812  0.41734658  0.51068733     0.08900
H38         H  0.72200638  0.53457625  0.49426973     0.06400
H39         H  0.83762565  0.53585919  0.53415690     0.06300
C40         C  0.92954066  0.86651229  0.99554893     0.80400
N41         N  0.96363653  0.88660965  0.47000961    -0.77900
C42         C  0.98564466  0.92989905  0.46733855     0.82900
N43         N  0.97465548  0.95400520  0.99350003    -0.77800
C44         C  0.93976318  0.93250406  0.02221313     0.83000
N45         N  0.91753163  0.88916865  0.02256452    -0.79600
O46         O  0.05876540  0.36868620  0.07274590    -0.74200
O47         O  0.14604344  0.41164829  0.16741241    -0.74300
O48         O  0.14479169  0.41115260  0.07183787    -0.74300
O49         O  0.06024557  0.36933499  0.16808045    -0.74400
O50         O  0.05777377  0.30686029  0.16961540    -0.74300
O51         O  0.14442184  0.34972075  0.07122308    -0.74300
O52         O  0.14521500  0.34999440  0.16926780    -0.74300
O53         O  0.05677380  0.30645021  0.07184329    -0.74300
Ni54       Ni  0.10257176  0.39222813  0.11996126     1.25400
Ni55       Ni  0.10106186  0.32586477  0.12045180     1.25400
C56         C  0.04250235  0.33043805  0.05755153     0.87900
C57         C  0.16018780  0.38840138  0.18397525     0.87900
C58         C  0.15910261  0.38804193  0.05603913     0.87900
C59         C  0.04434621  0.33131272  0.18410559     0.88100
C60         C  0.24183141  0.01889360  0.26593431     0.80400
N61         N  0.20503944  0.00503268  0.29013731    -0.77900
C62         C  0.18118977  0.02367402  0.28438930     0.82900
N63         N  0.19380512  0.05661827  0.25287204    -0.77800
C64         C  0.23032993  0.07020865  0.22729610     0.83000
N65         N  0.25409424  0.05140535  0.23428823    -0.79600
C66         C  0.40267522  0.86082339  0.29566754     0.03300
C67         C  0.44754260  0.88239220  0.29396402    -0.12800
C68         C  0.46911488  0.85966256  0.29240602     0.00800
C69         C  0.44549097  0.81495542  0.29138908    -0.11400
C70         C  0.40071421  0.79277903  0.29220672     0.03300
C71         C  0.37949557  0.81585989  0.29463840    -0.10800
H72         H  0.46579229  0.91695327  0.29274537     0.08900
H73         H  0.46200625  0.79733690  0.28855175     0.06400
H74         H  0.34488791  0.79879591  0.29438211     0.06300
C75         C  0.79060761  0.01682243  0.25768861     0.80400
N76         N  0.81080471  0.00399070  0.22753868    -0.77900
C77         C  0.85402530  0.02723773  0.22211576     0.82900
N78         N  0.87766012  0.06393967  0.24780881    -0.77800
C79         C  0.85728385  0.07706343  0.27796485     0.83000
N80         N  0.81417211  0.05360387  0.28205204    -0.79600
C81         C  0.39441110  0.31007109  0.25670465     0.80400
N82         N  0.37179117  0.27603828  0.22764543    -0.77900
C83         C  0.32846867  0.25644500  0.22437153     0.82900
N84         N  0.30722053  0.27092965  0.25115670    -0.77800
C85         C  0.32996994  0.30530198  0.28038745     0.83000
N86         N  0.37320475  0.32463532  0.28243137    -0.79600
C87         C  0.78387027  0.47599590  0.23935129     0.03300
C88         C  0.73921466  0.45361229  0.24282247    -0.12800
C89         C  0.71710742  0.47558530  0.24637112     0.00800
C90         C  0.73980227  0.52036689  0.24575312    -0.11400
C91         C  0.78455408  0.54335554  0.24133483     0.03300
C92         C  0.80629628  0.52080324  0.23752908    -0.10800
H93         H  0.72163183  0.41900326  0.24328817     0.08900
H94         H  0.72256971  0.53725822  0.24874689     0.06400
H95         H  0.84071893  0.53806400  0.23360909     0.06300
C96         C  0.93876021  0.86551350  0.23808125     0.80400
N97         N  0.97165285  0.88703635  0.26882954    -0.77900
C98         C  0.99205183  0.93021585  0.27214917     0.82900
N99         N  0.97912063  0.95242200  0.24406498    -0.77800
C100        C  0.94567926  0.93067834  0.21299199     0.83000
N101        N  0.92574805  0.88736381  0.21039305    -0.79600
C102        C  0.23427448  0.01585151  0.49797325     0.80400
N103        N  0.24792680  0.04853013  0.02379930    -0.77900
C104        C  0.22565514  0.06900720  0.02826160     0.82900
N105        N  0.19013424  0.05811357  0.50131743    -0.77800
C106        C  0.17602302  0.02282280  0.47307895     0.83000
N107        N  0.19792445  0.00178682  0.47233750    -0.79600
C108        C  0.39763798  0.86045192  0.96915964     0.03300
C109        C  0.37633593  0.81574782  0.97330005    -0.12800
C110        C  0.39939032  0.79449621  0.97563247     0.00800
C111        C  0.44415526  0.81830984  0.97497354    -0.11400
C112        C  0.46583911  0.86295346  0.97230471     0.03300
C113        C  0.44254633  0.88372928  0.96804518    -0.10800
H114        H  0.34181265  0.79738181  0.97531822     0.08900
H115        H  0.46218418  0.80215887  0.97764847     0.06400
H116        H  0.45956071  0.91824475  0.96543352     0.06300
C117        C  0.78772689  0.02350395  0.99444688     0.80400
N118        N  0.80772917  0.00925571  0.02353176    -0.77900
C119        C  0.85113383  0.02950753  0.02520830     0.82900
N120        N  0.87498556  0.06407644  0.99645117    -0.77800
C121        C  0.85447701  0.08198554  0.46949345     0.83000
N122        N  0.81129989  0.06333552  0.47189048    -0.79600
O123        O  0.90224451  0.21879939  0.41666305    -0.74200
O124        O  0.85798059  0.13189009  0.32211660    -0.74300
O125        O  0.85593401  0.13316572  0.41741911    -0.74300
O126        O  0.90403981  0.21790485  0.32109906    -0.74400
O127        O  0.96490874  0.21710455  0.32295465    -0.74300
O128        O  0.91542092  0.12986052  0.42156846    -0.74300
O129        O  0.91786614  0.12921978  0.32375458    -0.74300
O130        O  0.96263565  0.21720661  0.42102963    -0.74300
Ni131      Ni  0.87817116  0.17556552  0.36909843     1.25400
Ni132      Ni  0.94259824  0.17330579  0.37235339     1.25400
C133        C  0.93941103  0.23238386  0.43462072     0.87900
C134        C  0.87966235  0.11522614  0.30835249     0.87900
C135        C  0.87703876  0.11706108  0.43509187     0.87900
C136        C  0.94224799  0.23233378  0.30676008     0.88100
O137        O  0.89086454  0.92994483  0.16712592    -0.74200
O138        O  0.84693526  0.97556944  0.07551612    -0.74300
O139        O  0.88793757  0.93159853  0.07188053    -0.74300
O140        O  0.84941529  0.97396841  0.17122418    -0.74400
O141        O  0.91133973  0.03585505  0.17122010    -0.74300
O142        O  0.95127933  0.99200773  0.07070235    -0.74300
O143        O  0.90957884  0.03669576  0.07317589    -0.74300
O144        O  0.95352211  0.99109042  0.16836757    -0.74300
Ni145      Ni  0.86674069  0.95082594  0.12151573     1.25400
Ni146      Ni  0.93382812  0.01632600  0.12091503     1.25400
C147        C  0.92947139  0.95222018  0.18199286     0.87900
C148        C  0.87067052  0.01336337  0.05914763     0.87900
C149        C  0.92589235  0.95388838  0.05568903     0.87900
C150        C  0.87318668  0.01189429  0.18703207     0.88100
O151        O  0.21912411  0.11914116  0.07874421    -0.74200
O152        O  0.26785067  0.20703613  0.17638225    -0.74300
O153        O  0.26554220  0.20685236  0.07822635    -0.74300
O154        O  0.22162063  0.11939373  0.17698795    -0.74400
O155        O  0.28264574  0.11896913  0.17469443    -0.74300
O156        O  0.32533659  0.20406381  0.07804841    -0.74300
O157        O  0.32797224  0.20492792  0.17368751    -0.74300
O158        O  0.27990420  0.11819341  0.07902746    -0.74300
Ni159      Ni  0.24113463  0.16312560  0.12766768     1.25400
Ni160      Ni  0.30586409  0.16146901  0.12628739     1.25400
C161        C  0.24191150  0.10403534  0.06334407     0.87900
C162        C  0.30644427  0.22076369  0.19035608     0.87900
C163        C  0.30343432  0.22015923  0.06263307     0.87900
C164        C  0.24525486  0.10472705  0.19160170     0.88100
O165        O  0.12596332  0.03166723  0.42435735    -0.74200
O166        O  0.04101418  0.98887475  0.32264756    -0.74300
O167        O  0.03822752  0.98868175  0.42046854    -0.74300
O168        O  0.12860141  0.03183281  0.32674959    -0.74400
O169        O  0.12665805  0.96964278  0.33019268    -0.74300
O170        O  0.03696322  0.92679264  0.42054630    -0.74300
O171        O  0.04069977  0.92750528  0.32524172    -0.74300
O172        O  0.12296345  0.96895332  0.42534097    -0.74300
Ni173      Ni  0.08345777  0.01266141  0.37351420     1.25400
Ni174      Ni  0.08170485  0.94619661  0.37539777     1.25400
C175        C  0.13918236  0.00725551  0.44035286     0.87900
C176        C  0.02666049  0.95057730  0.30783590     0.87900
C177        C  0.02235921  0.95004405  0.43504848     0.87900
C178        C  0.14310790  0.00777215  0.31430741     0.88100
O179        O  0.23051412  0.34580803  0.32439415    -0.74200
O180        O  0.27165830  0.30071230  0.42324174    -0.74300
O181        O  0.23136643  0.34700041  0.42214104    -0.74300
O182        O  0.27115735  0.29966280  0.32568258    -0.74400
O183        O  0.33391536  0.36074197  0.32625735    -0.74300
O184        O  0.29487870  0.40720292  0.42047324    -0.74300
O185        O  0.33452298  0.36167189  0.42147752    -0.74300
O186        O  0.29401921  0.40607090  0.32511823    -0.74300
Ni187      Ni  0.24869061  0.32095500  0.37386561     1.25400
Ni188      Ni  0.31636761  0.38588487  0.37327048     1.25400
C189        C  0.25561618  0.38409711  0.30967211     0.87900
C190        C  0.31053178  0.32380320  0.43744384     0.87900
C191        C  0.25676933  0.38541718  0.43634513     0.87900
C192        C  0.30993288  0.32252058  0.31139877     0.88100
C193        C  0.67168843  0.93537355  0.99475649    -0.01800
C194        C  0.65029512  0.95812703  0.98683258     0.06800
C195        C  0.67346443  0.00643039  0.49765206    -0.07800
C196        C  0.71826067  0.02917086  0.49933810     0.04200
C197        C  0.74047578  0.00187698  0.99304975    -0.15000
C198        C  0.71632696  0.95730708  0.99793064    -0.08300
C199        C  0.60286700  0.93834637  0.49548624     0.05200
C200        C  0.57841336  0.90980794  0.02140601    -0.09500
C201        C  0.53386517  0.88577636  0.01833628     0.00100
C202        C  0.51291330  0.88819045  0.97678835     0.00000
C203        C  0.53456538  0.91928509  0.45866708    -0.13000
C204        C  0.57928926  0.94355672  0.45841525     0.00500
C205        C  0.51033393  0.85936826  0.05860518     0.39800
C206        C  0.60004521  0.97304229  0.41941935     0.36400
C207        C  0.64857731  0.88939256  0.99874488     0.36100
C208        C  0.74026264  0.07512615  0.50268965     0.36900
N209        N  0.49145369  0.83807584  0.09077615    -0.43900
N210        N  0.61626620  0.99698519  0.38830238    -0.44300
N211        N  0.75778357  0.11194775  0.50553512    -0.41700
N212        N  0.62982089  0.85257350  0.00224729    -0.43100
H213        H  0.73240140  0.93941208  0.00323938     0.13000
H214        H  0.65639350  0.02361919  0.49837618     0.09500
H215        H  0.59426816  0.90792926  0.05355918     0.10600
H216        H  0.51662000  0.92277282  0.42961768     0.16400
C217        C  0.36716126  0.94189551  0.00267612    -0.01800
C218        C  0.32847426  0.92737436  0.97748189     0.06800
C219        C  0.31910482  0.89668579  0.45807385    -0.07800
C220        C  0.34106711  0.87451909  0.45604914     0.04200
C221        C  0.37352249  0.88336628  0.97011746    -0.15000
C222        C  0.38865730  0.91938167  0.99971150    -0.08300
C223        C  0.30371945  0.94934940  0.98154561     0.05200
C224        C  0.32471388  0.99229216  0.49627580    -0.09500
C225        C  0.30346014  0.01521789  0.49647728     0.00100
C226        C  0.25828740  0.99317389  0.49630812     0.00000
C227        C  0.26685392  0.97661273  0.02863719    -0.13000
C228        C  0.28795788  0.95362769  0.02593648     0.00500
C229        C  0.32889666  0.06125962  0.49500332     0.39800
C230        C  0.29205287  0.93382342  0.06895374     0.36400
C231        C  0.38626614  0.98069939  0.03046793     0.36100
C232        C  0.33265724  0.84656207  0.41600925     0.36900
N233        N  0.34942627  0.09814088  0.49374881    -0.43900
N234        N  0.29548326  0.91806431  0.10343232    -0.44300
N235        N  0.32501052  0.82439551  0.38340121    -0.41700
N236        N  0.40155761  0.01187851  0.05256056    -0.43100
H237        H  0.41748197  0.93009049  0.02080671     0.13000
H238        H  0.29674708  0.89246899  0.42973476     0.09500
H239        H  0.35936351  0.00941093  0.49563025     0.10600
H240        H  0.25486855  0.97985064  0.06281307     0.16400
C241        C  0.81519775  0.65630820  0.20674768    -0.01800
C242        C  0.85105764  0.68111314  0.23625327     0.06800
C243        C  0.86485815  0.66056867  0.26793536    -0.07800
C244        C  0.84382636  0.61591766  0.27024678     0.04200
C245        C  0.80827411  0.59089511  0.24008859    -0.15000
C246        C  0.79435394  0.61166205  0.20863967    -0.08300
C247        C  0.87379884  0.72852179  0.23580726     0.05200
C248        C  0.87180562  0.74981369  0.27647076    -0.09500
C249        C  0.89279359  0.79444588  0.27763811     0.00100
C250        C  0.91574935  0.81846595  0.23734196     0.00000
C251        C  0.91815797  0.79730298  0.19680429    -0.13000
C252        C  0.89775772  0.75261385  0.19593727     0.00500
C253        C  0.88991704  0.81503407  0.32026659     0.39800
C254        C  0.90334090  0.73217817  0.15481653     0.36400
C255        C  0.79833039  0.67600802  0.17560320     0.36100
C256        C  0.85840612  0.59679029  0.30524155     0.36900
N257        N  0.88781444  0.83184910  0.35424148    -0.43900
N258        N  0.90795968  0.71561299  0.12214055    -0.44300
N259        N  0.87026111  0.58161023  0.33327674    -0.41700
N260        N  0.78476494  0.69195500  0.15095890    -0.43100
H261        H  0.76699148  0.59291243  0.18552611     0.13000
H262        H  0.89206208  0.67956754  0.29115604     0.09500
H263        H  0.85366674  0.73145975  0.30729461     0.10600
H264        H  0.93688758  0.81575561  0.16633410     0.16400
C265        C  0.50946353  0.40031746  0.26749081    -0.01800
C266        C  0.53248335  0.37940170  0.25946044     0.06800
C267        C  0.50987716  0.33496579  0.25297775    -0.07800
C268        C  0.46507309  0.31156037  0.25249853     0.04200
C269        C  0.44190651  0.33267863  0.25896990    -0.15000
C270        C  0.46471314  0.37694226  0.26744711    -0.08300
C271        C  0.57998804  0.40347896  0.25613762     0.05200
C272        C  0.60465225  0.42763727  0.29541073    -0.09500
C273        C  0.64934757  0.45164684  0.29282458     0.00100
C274        C  0.67003752  0.45134123  0.25050890     0.00000
C275        C  0.64556344  0.42669356  0.21157488    -0.13000
C276        C  0.60091604  0.40305201  0.21395765     0.00500
C277        C  0.67341382  0.47553923  0.33428177     0.39800
C278        C  0.57725575  0.37944198  0.17223775     0.36400
C279        C  0.53096666  0.44601013  0.27380643     0.36100
C280        C  0.44393011  0.26586034  0.24662548     0.36900
N281        N  0.69285209  0.49475084  0.36739799    -0.43900
N282        N  0.55818621  0.36032546  0.13893637    -0.44300
N283        N  0.42705477  0.22921969  0.24201178    -0.41700
N284        N  0.54825033  0.48261792  0.27895029    -0.43100
H285        H  0.44755189  0.39370209  0.27265320     0.13000
H286        H  0.52739649  0.31855065  0.24786504     0.09500
H287        H  0.58892220  0.42762301  0.32817345     0.10600
H288        H  0.66143025  0.42636123  0.17901595     0.16400
C289        C  0.58013092  0.93317500  0.24404040    -0.01800
C290        C  0.60560589  0.92399584  0.27443799     0.06800
C291        C  0.58616227  0.89503244  0.31235580    -0.07800
C292        C  0.54196942  0.87440771  0.31948554     0.04200
C293        C  0.51632190  0.88254981  0.28811645    -0.15000
C294        C  0.53589292  0.91227576  0.25090654    -0.08300
C295        C  0.65285845  0.94620952  0.26956656     0.05200
C296        C  0.67813114  0.97137969  0.30767320    -0.09500
C297        C  0.72268957  0.99403580  0.30498735     0.00100
C298        C  0.74325234  0.99157421  0.26325982     0.00000
C299        C  0.71776625  0.96489091  0.22571428    -0.13000
C300        C  0.67298910  0.94234440  0.22853163     0.00500
C301        C  0.74600378  0.01884887  0.34623797     0.39800
C302        C  0.64843932  0.91495393  0.18927917     0.36400
C303        C  0.59864896  0.96471533  0.20642897     0.36100
C304        C  0.52390863  0.84601939  0.36000332     0.36900
N305        N  0.76436171  0.03886162  0.37937248    -0.43900
N306        N  0.62871466  0.89312504  0.15776595    -0.44300
N307        N  0.50941168  0.82325552  0.39243970    -0.41700
N308        N  0.61331444  0.98989711  0.17616951    -0.43100
H309        H  0.51646176  0.91891629  0.22683686     0.13000
H310        H  0.60568412  0.88866816  0.33660403     0.09500
H311        H  0.66287833  0.97355376  0.33976433     0.10600
H312        H  0.73275630  0.96211393  0.19365876     0.16400
C313        C  0.32458816  0.89562323  0.25847672    -0.01800
C314        C  0.33755511  0.93200616  0.28701326     0.06800
C315        C  0.37038177  0.94365717  0.32073594    -0.07800
C316        C  0.39144693  0.92053059  0.32498067     0.04200
C317        C  0.37995485  0.88523101  0.29460010    -0.15000
C318        C  0.34606704  0.87298394  0.26197503    -0.08300
C319        C  0.31607057  0.95726628  0.28295572     0.05200
C320        C  0.28864027  0.95429180  0.31949166    -0.09500
C321        C  0.26458786  0.97430713  0.31517612     0.00100
C322        C  0.26805772  0.99842597  0.27351370     0.00000
C323        C  0.29705707  0.00261922  0.23782465    -0.13000
C324        C  0.32082491  0.98226963  0.24218371     0.00500
C325        C  0.23660800  0.96905704  0.35420853     0.39800
C326        C  0.34993763  0.98746762  0.20438054     0.36400
C327        C  0.28830524  0.88013000  0.22656641     0.36100
C328        C  0.42341870  0.93265521  0.36205930     0.36900
N329        N  0.21378844  0.96439023  0.38525929    -0.43900
N330        N  0.37331714  0.99169773  0.17411512    -0.44300
N331        N  0.44900985  0.94237309  0.39180394    -0.41700
N332        N  0.25889418  0.86757093  0.20148567    -0.43100
H333        H  0.33645004  0.84575682  0.23880413     0.13000
H334        H  0.37945907  0.97082192  0.34384989     0.09500
H335        H  0.28521356  0.93530348  0.35104614     0.10600
H336        H  0.30061198  0.02110019  0.20582298     0.16400
C337        C  0.80276653  0.65477292  0.52404725    -0.01800
C338        C  0.84563450  0.68052741  0.50949806     0.06800
C339        C  0.86885540  0.66073752  0.49800629    -0.07800
C340        C  0.84959283  0.61621857  0.49777085     0.04200
C341        C  0.80672979  0.59010729  0.51348255    -0.15000
C342        C  0.78451976  0.61052808  0.52782832    -0.08300
C343        C  0.86670896  0.72796120  0.50591544     0.05200
C344        C  0.86427782  0.75136836  0.04058101    -0.09500
C345        C  0.88402696  0.79595089  0.03952435     0.00100
C346        C  0.90612094  0.81898536  0.99805353     0.00000
C347        C  0.90903669  0.79518068  0.46325998    -0.13000
C348        C  0.88898238  0.75064530  0.46449829     0.00500
C349        C  0.88155523  0.81687904  0.08204868     0.39800
C350        C  0.89099446  0.72915035  0.42220887     0.36400
C351        C  0.77465951  0.67266307  0.03142977     0.36100
C352        C  0.87445085  0.59918342  0.47838340     0.36900
N353        N  0.87913571  0.83363933  0.11589637    -0.43900
N354        N  0.89287357  0.71200946  0.38840761    -0.44300
N355        N  0.89516598  0.58640266  0.46287624    -0.41700
N356        N  0.75348492  0.68693496  0.04028942    -0.43100
H357        H  0.75216010  0.59191760  0.54113433     0.13000
H358        H  0.90206485  0.68021217  0.48758700     0.09500
H359        H  0.84880089  0.73439355  0.07313338     0.10600
H360        H  0.92631557  0.81201416  0.43135102     0.16400
C361        C  0.91783770  0.40635021  0.01450892    -0.01800
C362        C  0.87465231  0.38439181  0.52365533     0.06800
C363        C  0.85208562  0.33976670  0.51943900    -0.07800
C364        C  0.87376858  0.31744151  0.51422450     0.04200
C365        C  0.91891303  0.33999467  0.51335290    -0.15000
C366        C  0.94048124  0.38480150  0.01235638    -0.08300
C367        C  0.85072741  0.40731309  0.52437700     0.05200
C368        C  0.85552755  0.43396065  0.48560287    -0.09500
C369        C  0.83352236  0.45604341  0.48398019     0.00100
C370        C  0.80644838  0.45203855  0.52198697     0.00000
C371        C  0.79754896  0.42209994  0.05050504    -0.13000
C372        C  0.81872021  0.39891382  0.05081442     0.00500
C373        C  0.83763948  0.48098279  0.44184464     0.39800
C374        C  0.81058869  0.36931056  0.08950127     0.36400
C375        C  0.94163923  0.45235534  0.01776708     0.36100
C376        C  0.84897364  0.27145419  0.51120209     0.36900
N377        N  0.84070799  0.50059000  0.40782253    -0.43900
N378        N  0.80411439  0.34548182  0.12038146    -0.44300
N379        N  0.82909831  0.23458908  0.50888486    -0.41700
N380        N  0.96057285  0.48922523  0.02028106    -0.43100
H381        H  0.97513231  0.40305489  0.01265921     0.13000
H382        H  0.81743204  0.32244314  0.51934815     0.09500
H383        H  0.87608152  0.43694675  0.45609565     0.10600
H384        H  0.77575958  0.41767030  0.07920985     0.16400
C385        C  0.85781690  0.34228259  0.23746398    -0.01800
C386        C  0.87800505  0.38718869  0.23520997     0.06800
C387        C  0.92282024  0.41176042  0.23528092    -0.07800
C388        C  0.94755164  0.39237401  0.23733290     0.04200
C389        C  0.92732358  0.34744411  0.24020552    -0.15000
C390        C  0.88250008  0.32291257  0.24035591    -0.08300
C391        C  0.85311520  0.40925912  0.23482744     0.05200
C392        C  0.82593621  0.40285949  0.27333574    -0.09500
C393        C  0.80301338  0.42408346  0.27535154     0.00100
C394        C  0.80718997  0.45250098  0.23828113     0.00000
C395        C  0.83444634  0.45901060  0.19981109    -0.13000
C396        C  0.85736235  0.43773133  0.19783899     0.00500
C397        C  0.77665431  0.41731763  0.31667772     0.39800
C398        C  0.88464023  0.44522884  0.15728232     0.36400
C399        C  0.81188161  0.31530491  0.23568879     0.36100
C400        C  0.99348988  0.41947546  0.23848845     0.36900
N401        N  0.75545738  0.41183613  0.34972080    -0.43900
N402        N  0.90656539  0.45114890  0.12485175    -0.44300
N403        N  0.03029281  0.44131893  0.23941302    -0.41700
N404        N  0.77508587  0.29354965  0.23416810    -0.43100
H405        H  0.86664515  0.28837090  0.24194549     0.13000
H406        H  0.93854401  0.44630718  0.23441595     0.09500
H407        H  0.82320388  0.38172231  0.30237235     0.10600
H408        H  0.83762483  0.48060919  0.17110530     0.16400
C409        C  0.36976022  0.68184366  0.46304391    -0.01800
C410        C  0.33990310  0.65734874  0.49890612     0.06800
C411        C  0.32620290  0.67925825  0.01491768    -0.07800
C412        C  0.34665737  0.72386487  0.01422574     0.04200
C413        C  0.37899783  0.74724078  0.49778859    -0.15000
C414        C  0.38881298  0.72626633  0.46273344    -0.08300
C415        C  0.31729980  0.60977459  0.49925990     0.05200
C416        C  0.33672653  0.58986249  0.98398072    -0.09500
C417        C  0.31710715  0.54536060  0.98552178     0.00100
C418        C  0.27586159  0.51953052  0.49815536     0.00000
C419        C  0.25205101  0.54005614  0.49855521    -0.13000
C420        C  0.27223008  0.58463821  0.49865831     0.00500
C421        C  0.34399551  0.52688978  0.98749230     0.39800
C422        C  0.24589237  0.60374374  0.49673849     0.36400
C423        C  0.38161646  0.66248392  0.42604441     0.36100
C424        C  0.33694264  0.74479204  0.05155478     0.36900
N425        N  0.36562363  0.51216799  0.98889989    -0.43900
N426        N  0.22478643  0.61904958  0.49530588    -0.44300
N427        N  0.32896413  0.76150313  0.08135628    -0.41700
N428        N  0.39219610  0.64754559  0.39678523    -0.43100
H429        H  0.41117317  0.74473626  0.43459942     0.13000
H430        H  0.30370513  0.66154490  0.04321063     0.09500
H431        H  0.37132511  0.60924142  0.98450964     0.10600
H432        H  0.21741882  0.52114833  0.49787274     0.16400
C433        C  0.50883112  0.38774801  0.45590535    -0.01800
C434        C  0.53254771  0.37746006  0.48741486     0.06800
C435        C  0.50825503  0.34389154  0.02533863    -0.07800
C436        C  0.46363946  0.32161522  0.02855094     0.04200
C437        C  0.44217069  0.33227936  0.49225994    -0.15000
C438        C  0.46415244  0.36513186  0.45832000    -0.08300
C439        C  0.57976987  0.40298166  0.48955804     0.05200
C440        C  0.59687087  0.43102232  0.02895544    -0.09500
C441        C  0.64143657  0.45510633  0.03249953     0.00100
C442        C  0.66939243  0.44990797  0.49940377     0.00000
C443        C  0.65012346  0.42108338  0.46140077    -0.13000
C444        C  0.60554726  0.39777123  0.45613977     0.00500
C445        C  0.66033899  0.48452138  0.07194683     0.39800
C446        C  0.58686147  0.36817255  0.41688046     0.36400
C447        C  0.52971747  0.42241756  0.42206641     0.36100
C448        C  0.44462095  0.29100844  0.06702278     0.36900
N449        N  0.67536850  0.50803141  0.10361058    -0.43900
N450        N  0.57180270  0.34444424  0.38541571    -0.44300
N451        N  0.42975400  0.26673332  0.09813066    -0.41700
N452        N  0.54641873  0.45034265  0.39510518    -0.43100
H453        H  0.44658355  0.37393892  0.43397459     0.13000
H454        H  0.52674214  0.33688462  0.05038652     0.09500
H455        H  0.57752183  0.43535844  0.05507820     0.10600
H456        H  0.66994711  0.41690269  0.43582925     0.16400
C457        C  0.36529194  0.68376269  0.24073317    -0.01800
C458        C  0.33250389  0.65636938  0.27231164     0.06800
C459        C  0.32260390  0.67389867  0.31119020    -0.07800
C460        C  0.34435153  0.71807775  0.31858121     0.04200
C461        C  0.37646803  0.74566422  0.28630998    -0.15000
C462        C  0.38655600  0.72795527  0.24762722    -0.08300
C463        C  0.31007101  0.60923211  0.26744329     0.05200
C464        C  0.31458928  0.58555035  0.30418321    -0.09500
C465        C  0.29503467  0.54117208  0.30138683     0.00100
C466        C  0.26977138  0.51928019  0.26080661     0.00000
C467        C  0.26461090  0.54322776  0.22439196    -0.13000
C468        C  0.28436567  0.58771555  0.22744067     0.00500
C469        C  0.30117833  0.51953729  0.34140478     0.39800
C470        C  0.27709562  0.61045692  0.18956332     0.36400
C471        C  0.37888429  0.66721272  0.20225526     0.36100
C472        C  0.33452039  0.73376688  0.36091207     0.36900
N473        N  0.30648239  0.50260300  0.37359273    -0.43900
N474        N  0.27138564  0.62868417  0.15912124    -0.44300
N475        N  0.32624184  0.74544600  0.39532348    -0.41700
N476        N  0.38975275  0.65387103  0.17148386    -0.43100
H477        H  0.41143733  0.74877643  0.22285067     0.13000
H478        H  0.29817115  0.65284960  0.33628291     0.09500
H479        H  0.33371147  0.60193681  0.33526240     0.10600
H480        H  0.24524418  0.52727861  0.19315274     0.16400
C481        C  0.25835820  0.47239791  0.73948584     0.80400
N482        N  0.27005696  0.45034913  0.76883783    -0.77900
C483        C  0.24610667  0.40704253  0.77221748     0.82900
N484        N  0.20982212  0.38511343  0.74525439    -0.77800
C485        C  0.19796355  0.40714763  0.71556603     0.83000
N486        N  0.22214280  0.45030308  0.71333584    -0.79600
C487        C  0.39166673  0.30931540  0.99780922     0.80400
N488        N  0.37155771  0.27776276  0.52448483    -0.77900
C489        C  0.32844731  0.25895164  0.52765370     0.82900
N490        N  0.30426682  0.27066454  0.00068414    -0.77800
C491        C  0.32773464  0.30497716  0.97133304     0.83000
N492        N  0.37093952  0.32388316  0.97059140    -0.79600
C493        C  0.24968884  0.47278626  0.98960713     0.80400
N494        N  0.26248290  0.45043041  0.96317897    -0.77900
C495        C  0.24129173  0.40710098  0.96516442     0.82900
N496        N  0.20708088  0.38566321  0.99481497    -0.77800
C497        C  0.19481128  0.40688941  0.52557398     0.83000
N498        N  0.21720528  0.45021770  0.52513967    -0.79600
C499        C  0.95173528  0.32588520  0.74624540     0.78000
N500        N  0.98645524  0.33811457  0.71865598    -0.77900
C501        C  0.00685424  0.31555224  0.71847217     0.82900
N502        N  0.99267617  0.28042230  0.74711466    -0.77800
C503        C  0.95776277  0.26828581  0.77520276     0.83000
N504        N  0.93742654  0.29079500  0.77395553    -0.79600
C505        C  0.94369117  0.31840147  0.50747754     0.80400
N506        N  0.93187565  0.28537912  0.97483746    -0.77900
C507        C  0.95518306  0.26601656  0.97028249     0.82900
N508        N  0.99091173  0.27995905  0.49688381    -0.77800
C509        C  0.00363622  0.31299676  0.52818244     0.83000
N510        N  0.98016548  0.33207080  0.53265947    -0.79600
C511        C  0.78071206  0.47430854  0.01302048     0.03300
C512        C  0.73625779  0.45158542  0.00770005    -0.12800
C513        C  0.71400065  0.47329874  0.00222424     0.00800
C514        C  0.73673245  0.51804813  0.99991175    -0.11400
C515        C  0.78142906  0.54191267  0.00704885     0.03300
C516        C  0.80281182  0.51916694  0.01510079    -0.10800
H517        H  0.71901732  0.41698020  0.00746036     0.08900
H518        H  0.71906146  0.53395799  0.99236500     0.06400
H519        H  0.83658624  0.53575245  0.02319372     0.06300
C520        C  0.92925233  0.86550277  0.49873730     0.80400
N521        N  0.96402360  0.88790607  0.96694841    -0.77900
C522        C  0.98652131  0.93132873  0.96538432     0.82900
N523        N  0.97349168  0.95282736  0.49448644    -0.77800
C524        C  0.93871499  0.93165038  0.52334447     0.83000
N525        N  0.91685093  0.88833309  0.52485857    -0.79600
O526        O  0.05783465  0.36703437  0.57460264    -0.74200
O527        O  0.14562872  0.40960896  0.66869959    -0.74300
O528        O  0.14381614  0.40905344  0.57354218    -0.74300
O529        O  0.05955172  0.36816083  0.66985078    -0.74400
O530        O  0.05618519  0.30527069  0.67128251    -0.74300
O531        O  0.14311259  0.34745112  0.57289743    -0.74300
O532        O  0.14403881  0.34756823  0.67052861    -0.74300
O533        O  0.05536009  0.30456440  0.57349101    -0.74300
Ni534      Ni  0.10176825  0.39045154  0.62166410     1.25400
Ni535      Ni  0.09958036  0.32375803  0.62207940     1.25400
C536        C  0.04139108  0.32879018  0.55925996     0.87900
C537        C  0.16016665  0.38637540  0.68427772     0.87900
C538        C  0.15828787  0.38599046  0.55813068     0.87900
C539        C  0.04308057  0.33005947  0.68569823     0.88100
C540        C  0.23255862  0.01035940  0.74747454     0.80400
N541        N  0.19832504  0.99875153  0.77578551    -0.77900
C542        C  0.17879238  0.02212092  0.77719945     0.82900
N543        N  0.19345900  0.05769625  0.74928203    -0.77800
C544        C  0.22795754  0.06954467  0.72067077     0.83000
N545        N  0.24726890  0.04600145  0.72039601    -0.79600
C546        C  0.39781468  0.85696075  0.73504424     0.03300
C547        C  0.44252097  0.88282549  0.73349657    -0.12800
C548        C  0.46802937  0.86433345  0.73012352     0.00800
C549        C  0.44870500  0.81983709  0.72767808    -0.11400
C550        C  0.40417167  0.79376739  0.72940407     0.03300
C551        C  0.37877083  0.81243505  0.73270659    -0.10800
H552        H  0.45743380  0.91724449  0.73535730     0.08900
H553        H  0.46839627  0.80547344  0.72542032     0.06400
H554        H  0.34428541  0.79232083  0.73407713     0.06300
C555        C  0.79020090  0.02884785  0.73941414     0.80400
N556        N  0.81101687  0.01407793  0.71322767    -0.77900
C557        C  0.85416218  0.03236455  0.71572415     0.82900
N558        N  0.87738868  0.06609424  0.74559390    -0.77800
C559        C  0.85657424  0.08084165  0.77259523     0.83000
N560        N  0.81343956  0.06226643  0.76888347    -0.79600
C561        C  0.39688197  0.31197300  0.75484080     0.80400
N562        N  0.37403323  0.27799528  0.72587741    -0.77900
C563        C  0.33071285  0.25824190  0.72347917     0.82900
N564        N  0.30968923  0.27242591  0.75099633    -0.77800
C565        C  0.33263969  0.30662823  0.78029884     0.83000
N566        N  0.37593364  0.32628080  0.78149793    -0.79600
C567        C  0.78650421  0.47961347  0.74464713     0.03300
C568        C  0.74173511  0.45638676  0.74631748    -0.12800
C569        C  0.71877792  0.47762627  0.74674324     0.00800
C570        C  0.74057954  0.52232397  0.74508707    -0.11400
C571        C  0.78539107  0.54599064  0.74262585     0.03300
C572        C  0.80805157  0.52429030  0.74163003    -0.10800
H573        H  0.72473680  0.42180752  0.74763936     0.08900
H574        H  0.72263422  0.53859781  0.74610527     0.06400
H575        H  0.84258906  0.54218731  0.73910479     0.06300
C576        C  0.93569482  0.86685263  0.73995304     0.80400
N577        N  0.96930661  0.88826464  0.76975262    -0.77900
C578        C  0.99058494  0.93149670  0.77205903     0.82900
N579        N  0.97789057  0.95383088  0.74388447    -0.77800
C580        C  0.94371143  0.93209123  0.71377837     0.83000
N581        N  0.92290807  0.88874685  0.71212208    -0.79600
C582        C  0.23587979  0.01670119  0.99181674     0.80400
N583        N  0.24808379  0.05059543  0.52576368    -0.77900
C584        C  0.22634220  0.07163177  0.52820552     0.82900
N585        N  0.19033952  0.05710882  0.00018764    -0.77800
C586        C  0.17793444  0.02442257  0.96832081     0.83000
N587        N  0.20088993  0.00472450  0.96455456    -0.79600
C588        C  0.39631329  0.85916784  0.49103774     0.03300
C589        C  0.37587053  0.81446579  0.49318018    -0.12800
C590        C  0.40004499  0.79433882  0.49546065     0.00800
C591        C  0.44475203  0.81917888  0.49493532    -0.11400
C592        C  0.46547744  0.86382235  0.49362881     0.03300
C593        C  0.44112304  0.88363626  0.49136439    -0.10800
H594        H  0.34128387  0.79542893  0.49359644     0.08900
H595        H  0.46349224  0.80372197  0.49626937     0.06400
H596        H  0.45705319  0.91818067  0.49070904     0.06300
C597        C  0.78792553  0.02904642  0.50026272     0.80400
N598        N  0.80814764  0.01343885  0.52678440    -0.77900
C599        C  0.85139667  0.03235559  0.52603106     0.82900
N600        N  0.87486977  0.06671185  0.49699374    -0.77800
C601        C  0.85473746  0.07795078  0.96658403     0.83000
N602        N  0.81147631  0.05763591  0.96613975    -0.79600
O603        O  0.90188821  0.21652661  0.91920798    -0.74200
O604        O  0.85705031  0.13231523  0.82243151    -0.74300
O605        O  0.85603685  0.13080503  0.91769955    -0.74300
O606        O  0.90312980  0.21790904  0.82380229    -0.74400
O607        O  0.96364055  0.21638315  0.82323510    -0.74300
O608        O  0.91585250  0.12801550  0.92032514    -0.74300
O609        O  0.91651415  0.12888186  0.82236950    -0.74300
O610        O  0.96276339  0.21574811  0.92125666    -0.74300
Ni611      Ni  0.87763202  0.17447168  0.87076633     1.25400
Ni612      Ni  0.94208751  0.17218644  0.87185478     1.25400
C613        C  0.93955952  0.23070567  0.93578163     0.87900
C614        C  0.87851572  0.11607048  0.80688512     0.87900
C615        C  0.87738905  0.11441604  0.93397038     0.87900
C616        C  0.94096975  0.23197962  0.80833866     0.88100
O617        O  0.88954717  0.93169772  0.66725023    -0.74200
O618        O  0.84719379  0.97728356  0.57398442    -0.74300
O619        O  0.88692632  0.93191529  0.57199976    -0.74300
O620        O  0.84950198  0.97702458  0.66920573    -0.74400
O621        O  0.91218891  0.03821205  0.66901961    -0.74300
O622        O  0.95063511  0.99191371  0.57014809    -0.74300
O623        O  0.91025240  0.03799806  0.57153728    -0.74300
O624        O  0.95287601  0.99215289  0.66769883    -0.74300
Ni625      Ni  0.86623597  0.95250254  0.62068610     1.25400
Ni626      Ni  0.93394258  0.01741265  0.61958708     1.25400
C627        C  0.92818219  0.95366298  0.68208052     0.87900
C628        C  0.87115254  0.01516921  0.55801043     0.87900
C629        C  0.92493532  0.95364153  0.55585148     0.87900
C630        C  0.87369235  0.01519078  0.68406097     0.88100
O631        O  0.22088864  0.12325057  0.57674765    -0.74200
O632        O  0.27019105  0.21012273  0.67503282    -0.74300
O633        O  0.26880379  0.21072474  0.57701751    -0.74300
O634        O  0.22237742  0.12258643  0.67453324    -0.74400
O635        O  0.28258469  0.12055750  0.67225220    -0.74300
O636        O  0.32823372  0.20721515  0.57763503    -0.74300
O637        O  0.32951470  0.20646077  0.67309443    -0.74300
O638        O  0.28136394  0.12166730  0.57692502    -0.74300
Ni639      Ni  0.24324062  0.16683394  0.62591828     1.25400
Ni640      Ni  0.30734378  0.16390292  0.62496057     1.25400
C641        C  0.24335338  0.10776807  0.56150817     0.87900
C642        C  0.30844594  0.22286820  0.68946970     0.87900
C643        C  0.30673667  0.22361205  0.56190171     0.87900
C644        C  0.24493470  0.10649410  0.68831506     0.88100
O645        O  0.12733021  0.03334123  0.92092410    -0.74200
O646        O  0.04129558  0.99040520  0.82069459    -0.74300
O647        O  0.03939520  0.99044265  0.91845238    -0.74300
O648        O  0.12898662  0.03254228  0.82316980    -0.74400
O649        O  0.12591477  0.96982417  0.82621930    -0.74300
O650        O  0.03812385  0.92856583  0.91876197    -0.74300
O651        O  0.04001468  0.92854429  0.82353339    -0.74300
O652        O  0.12425649  0.97058296  0.92141924    -0.74300
Ni653      Ni  0.08432142  0.01412646  0.87078023     1.25400
Ni654      Ni  0.08199031  0.94738502  0.87259571     1.25400
C655        C  0.14071845  0.00895309  0.93635563     0.87900
C656        C  0.02610675  0.95184530  0.80647255     0.87900
C657        C  0.02349628  0.95179329  0.93321393     0.87900
C658        C  0.14250585  0.00779407  0.80989237     0.88100
O659        O  0.23364333  0.34744355  0.82154875    -0.74200
O660        O  0.27042054  0.29976775  0.92232926    -0.74300
O661        O  0.23105807  0.34696558  0.91922547    -0.74300
O662        O  0.27334320  0.30057665  0.82468626    -0.74400
O663        O  0.33648793  0.36114397  0.82785211    -0.74300
O664        O  0.29479908  0.40695381  0.91952305    -0.74300
O665        O  0.33346327  0.36051697  0.92316233    -0.74300
O666        O  0.29743589  0.40725713  0.82412498    -0.74300
Ni667      Ni  0.24963907  0.32137594  0.87187505     1.25400
Ni668      Ni  0.31760928  0.38592059  0.87375820     1.25400
C669        C  0.25954056  0.38565595  0.80705920     0.87900
C670        C  0.30877551  0.32240966  0.93826177     0.87900
C671        C  0.25619263  0.38525798  0.93388054     0.87900
C672        C  0.31253374  0.32337229  0.81177733     0.88100
C673        C  0.67282538  0.93948685  0.49619122    -0.01800
C674        C  0.65037476  0.96164729  0.49584574     0.06800
C675        C  0.67432166  0.00276800  0.98315286    -0.07800
C676        C  0.71898523  0.02473872  0.98608560     0.04200
C677        C  0.74066690  0.00690344  0.49973759    -0.15000
C678        C  0.71747139  0.96213007  0.49850433    -0.08300
C679        C  0.60289707  0.93580710  0.98324815     0.05200
C680        C  0.58087085  0.90977683  0.53296271    -0.09500
C681        C  0.53624453  0.88556131  0.53324969     0.00100
C682        C  0.51270752  0.88981746  0.49545389     0.00000
C683        C  0.53714288  0.91564037  0.93945865    -0.13000
C684        C  0.58184544  0.93921684  0.94222282     0.00500
C685        C  0.51537370  0.85727624  0.57323411     0.39800
C686        C  0.60531512  0.96572432  0.90204294     0.36400
C687        C  0.65079660  0.89351017  0.49294546     0.36100
C688        C  0.74173317  0.07081333  0.98376838     0.36900
N689        N  0.49860397  0.83452192  0.60517621    -0.43900
N690        N  0.62410386  0.98720937  0.86997135    -0.44300
N691        N  0.76005770  0.10773045  0.98205908    -0.41700
N692        N  0.63307699  0.85666802  0.49038042    -0.43100
H693        H  0.73434466  0.94473089  0.49828475     0.13000
H694        H  0.65805990  0.02054102  0.97838552     0.09500
H695        H  0.59874863  0.90637108  0.56213561     0.10600
H696        H  0.52110082  0.91795788  0.90770455     0.16400
C697        C  0.35597434  0.93081918  0.53192498    -0.01800
C698        C  0.32587348  0.92457935  0.49593589     0.06800
C699        C  0.31365002  0.89204657  0.94700959    -0.07800
C700        C  0.33602486  0.87033197  0.94263064     0.04200
C701        C  0.37124206  0.88082905  0.49191461    -0.15000
C702        C  0.37839534  0.90911026  0.52952035    -0.08300
C703        C  0.30187307  0.94751928  0.49634828     0.05200
C704        C  0.29647728  0.96693595  0.94028227    -0.09500
C705        C  0.27463024  0.98924100  0.94286578     0.00100
C706        C  0.25987861  0.99437931  0.98746554     0.00000
C707        C  0.23545609  0.94839479  0.49520153    -0.13000
C708        C  0.25675852  0.92549590  0.49540419     0.00500
C709        C  0.26942382  0.00812221  0.89967930     0.39800
C710        C  0.23155171  0.87944286  0.49580085     0.36400
C711        C  0.36406494  0.95880094  0.57201673     0.36100
C712        C  0.32070175  0.83605332  0.90831469     0.36900
N713        N  0.26552716  0.02345318  0.86509120    -0.43900
N714        N  0.21130439  0.84253551  0.49591897    -0.44300
N715        N  0.30840714  0.80862241  0.88076540    -0.41700
N716        N  0.37077805  0.98132677  0.60410784    -0.43100
H717        H  0.40136443  0.91394248  0.55736870     0.13000
H718        H  0.28456938  0.88152842  0.92643872     0.09500
H719        H  0.30855490  0.96381578  0.90611423     0.10600
H720        H  0.20079825  0.93118374  0.49510040     0.16400
C721        C  0.81566415  0.65825622  0.70600014    -0.01800
C722        C  0.85073727  0.68330273  0.73634130     0.06800
C723        C  0.86408141  0.66323511  0.76918510    -0.07800
C724        C  0.84299750  0.61871456  0.77228195     0.04200
C725        C  0.80846243  0.59338151  0.74105044    -0.15000
C726        C  0.79517032  0.61367508  0.70813254    -0.08300
C727        C  0.87258432  0.73049767  0.73623159     0.05200
C728        C  0.86833261  0.75098977  0.77629924    -0.09500
C729        C  0.88872714  0.79550078  0.77806531     0.00100
C730        C  0.91296130  0.82003180  0.73871661     0.00000
C731        C  0.91731354  0.79966779  0.69862241    -0.13000
C732        C  0.89776742  0.75513813  0.69734789     0.00500
C733        C  0.88402654  0.81536274  0.82029413     0.39800
C734        C  0.90545907  0.73551912  0.65693111     0.36400
C735        C  0.79902048  0.67768792  0.67414589     0.36100
C736        C  0.85612515  0.60005617  0.80943388     0.36900
N737        N  0.88035394  0.83143241  0.85404272    -0.43900
N738        N  0.91186094  0.71974731  0.62476160    -0.44300
N739        N  0.86668294  0.58518908  0.83926479    -0.41700
N740        N  0.78560397  0.69356574  0.64918123    -0.43100
H741        H  0.76848655  0.59464161  0.68428089     0.13000
H742        H  0.89074562  0.68251139  0.79292876     0.09500
H743        H  0.84892443  0.73209533  0.80616771     0.10600
H744        H  0.93692896  0.81865520  0.66889228     0.16400
C745        C  0.51167517  0.40272126  0.76146265    -0.01800
C746        C  0.53459899  0.38150843  0.75556568     0.06800
C747        C  0.51222288  0.33701102  0.75026612    -0.07800
C748        C  0.46744709  0.31354364  0.75008972     0.04200
C749        C  0.44428861  0.33477181  0.75583880    -0.15000
C750        C  0.46697646  0.37931162  0.76204835    -0.08300
C751        C  0.58191946  0.40543877  0.75319868     0.05200
C752        C  0.60583773  0.42557326  0.79449418    -0.09500
C753        C  0.65055820  0.44920737  0.79304488     0.00100
C754        C  0.67177944  0.45290136  0.74973459     0.00000
C755        C  0.64796195  0.43244669  0.70861418    -0.13000
C756        C  0.60328430  0.40887396  0.71002528     0.00500
C757        C  0.67420272  0.46893245  0.83635774     0.39800
C758        C  0.57989007  0.38919497  0.66662094     0.36400
C759        C  0.53332952  0.44867224  0.76465110     0.36100
C760        C  0.44634422  0.26776122  0.74503275     0.36900
N761        N  0.69351229  0.48488302  0.87082553    -0.43900
N762        N  0.56084516  0.37322488  0.63204398    -0.44300
N763        N  0.42954747  0.23107932  0.74089966    -0.41700
N764        N  0.55073791  0.48551877  0.76685572    -0.43100
H765        H  0.44973839  0.39613998  0.76596281     0.13000
H766        H  0.52988296  0.32064923  0.74590578     0.09500
H767        H  0.58951574  0.42272253  0.82781417     0.10600
H768        H  0.66433279  0.43521989  0.67533186     0.16400
C769        C  0.58066084  0.94245164  0.68984574    -0.01800
C770        C  0.60498028  0.94029569  0.72811455     0.06800
C771        C  0.58410309  0.91426231  0.76770633    -0.07800
C772        C  0.53949823  0.88967080  0.76915403     0.04200
C773        C  0.51510371  0.89130099  0.73061640    -0.15000
C774        C  0.53593164  0.91815159  0.69148210    -0.08300
C775        C  0.65230254  0.96463063  0.72790983     0.05200
C776        C  0.67397267  0.99963657  0.75849898    -0.09500
C777        C  0.71856575  0.02139698  0.76285515     0.00100
C778        C  0.74263279  0.00817236  0.73566019     0.00000
C779        C  0.72037040  0.97343030  0.70407906    -0.13000
C780        C  0.67575889  0.95165089  0.70024715     0.00500
C781        C  0.73789172  0.05647566  0.79624541     0.39800
C782        C  0.65459327  0.91516856  0.66888774     0.36400
C783        C  0.60095768  0.96945732  0.64883765     0.36100
C784        C  0.51940291  0.86330429  0.81069316     0.36900
N785        N  0.75294116  0.08445141  0.82321003    -0.43900
N786        N  0.63759181  0.88588364  0.64385071    -0.44300
N787        N  0.50321045  0.84208684  0.84387508    -0.41700
N788        N  0.61728929  0.99112549  0.61599969    -0.43100
H789        H  0.51722608  0.91950913  0.66186556     0.13000
H790        H  0.60279228  0.91283066  0.79730297     0.09500
H791        H  0.65577081  0.00968805  0.77953425     0.10600
H792        H  0.73764388  0.96253613  0.68266334     0.16400
C793        C  0.31912852  0.89154035  0.70165372    -0.01800
C794        C  0.32245318  0.91699110  0.74114699     0.06800
C795        C  0.34923139  0.92115532  0.77965886    -0.07800
C796        C  0.37341674  0.90116588  0.77879005     0.04200
C797        C  0.37097726  0.87657852  0.73872966    -0.15000
C798        C  0.34323697  0.87144128  0.70080985    -0.08300
C799        C  0.29942536  0.94076816  0.74238028     0.05200
C800        C  0.25617124  0.91931300  0.75493116    -0.09500
C801        C  0.23368234  0.94108647  0.75744946     0.00100
C802        C  0.25457262  0.98529507  0.74645990     0.00000
C803        C  0.29802742  0.00644570  0.73372556    -0.13000
C804        C  0.32050365  0.98473727  0.73208996     0.00500
C805        C  0.18915355  0.91682999  0.77052480     0.39800
C806        C  0.36530167  0.00824368  0.71999953     0.36400
C807        C  0.29220570  0.88665243  0.66108177     0.36100
C808        C  0.39995655  0.90577245  0.81965726     0.36900
N809        N  0.15351704  0.89723574  0.78124105    -0.43900
N810        N  0.40125370  0.02706187  0.71054550    -0.44300
N811        N  0.42115138  0.90942850  0.85246220    -0.41700
N812        N  0.27076027  0.88274535  0.62843095    -0.43100
H813        H  0.34123250  0.85253679  0.66998697     0.13000
H814        H  0.35145842  0.94037489  0.81026329     0.09500
H815        H  0.24003067  0.88545778  0.76307323     0.10600
H816        H  0.31484235  0.04032074  0.72566019     0.16400
C817        C  0.80104882  0.65489442  0.01996479    -0.01800
C818        C  0.84331019  0.68079581  0.00351443     0.06800
C819        C  0.86597475  0.66096816  0.98970529    -0.07800
C820        C  0.84679281  0.61640904  0.98925307     0.04200
C821        C  0.80456084  0.59008572  0.00678706    -0.15000
C822        C  0.78289323  0.61054059  0.02314226    -0.08300
C823        C  0.86450225  0.72842171  0.00048725     0.05200
C824        C  0.86460176  0.75091725  0.54491814    -0.09500
C825        C  0.88333785  0.79531451  0.54310779     0.00100
C826        C  0.90649112  0.81814734  0.50205263     0.00000
C827        C  0.90665132  0.79603987  0.95808456    -0.13000
C828        C  0.88562202  0.75135069  0.95868051     0.00500
C829        C  0.87847066  0.81616968  0.58430288     0.39800
C830        C  0.88559649  0.72985891  0.91546815     0.36400
C831        C  0.77585864  0.67253241  0.53254022     0.36100
C832        C  0.87123060  0.59964564  0.96813474     0.36900
N833        N  0.87403726  0.83271771  0.61712049    -0.43900
N834        N  0.88575327  0.71238806  0.88113175    -0.44300
N835        N  0.89185062  0.58731746  0.95129755    -0.41700
N836        N  0.75428853  0.68680556  0.53897436    -0.43100
H837        H  0.75109264  0.59191679  0.03792934     0.13000
H838        H  0.89877054  0.68048333  0.97787989     0.09500
H839        H  0.84821942  0.73402777  0.57716748     0.10600
H840        H  0.92312192  0.81300339  0.92592207     0.16400
C841        C  0.91970891  0.40681317  0.52354755    -0.01800
C842        C  0.87271297  0.38313169  0.01365171     0.06800
C843        C  0.85116262  0.33843068  0.01084532    -0.07800
C844        C  0.87380676  0.31683324  0.00844361     0.04200
C845        C  0.91901588  0.34013994  0.00858026    -0.15000
C846        C  0.94136165  0.38453872  0.51884230    -0.08300
C847        C  0.84775351  0.40519916  0.01395392     0.05200
C848        C  0.85335879  0.43315076  0.97624070    -0.09500
C849        C  0.83170641  0.45567810  0.97548265     0.00100
C850        C  0.80428656  0.45103839  0.01341241     0.00000
C851        C  0.80110467  0.42500596  0.56062828    -0.13000
C852        C  0.82287536  0.40245883  0.56196827     0.00500
C853        C  0.83633033  0.48153023  0.93407128     0.39800
C854        C  0.81639993  0.37483559  0.60222474     0.36400
C855        C  0.94442619  0.45272663  0.52790421     0.36100
C856        C  0.84983721  0.27073696  0.00760522     0.36900
N857        N  0.83967327  0.50173198  0.90050881    -0.43900
N858        N  0.81109862  0.35257750  0.63442129    -0.44300
N859        N  0.83069908  0.23379328  0.00713330    -0.41700
N860        N  0.96421953  0.48952830  0.53120379    -0.43100
H861        H  0.97601931  0.40217099  0.51843470     0.13000
H862        H  0.81651450  0.32037862  0.01013681     0.09500
H863        H  0.87443757  0.43699408  0.94695704     0.10600
H864        H  0.77991636  0.42152548  0.58962743     0.16400
C865        C  0.86078271  0.34758901  0.74684144    -0.01800
C866        C  0.88247621  0.39264115  0.74666667     0.06800
C867        C  0.92735389  0.41578191  0.74663205    -0.07800
C868        C  0.95063742  0.39484158  0.74574706     0.04200
C869        C  0.92889546  0.34978274  0.74583382    -0.15000
C870        C  0.88404399  0.32667114  0.74676179    -0.08300
C871        C  0.85889220  0.41606725  0.74641236     0.05200
C872        C  0.83003726  0.40876475  0.78343788    -0.09500
C873        C  0.80609399  0.42899694  0.78353766     0.00100
C874        C  0.81105238  0.45738731  0.74610511     0.00000
C875        C  0.84063678  0.46548795  0.70973633    -0.13000
C876        C  0.86454836  0.44525118  0.70964669     0.00500
C877        C  0.77757018  0.42098627  0.82306802     0.39800
C878        C  0.89405439  0.45437792  0.67093190     0.36400
C879        C  0.81468946  0.32205178  0.74590884     0.36100
C880        C  0.99671116  0.42035456  0.74663880     0.36900
N881        N  0.75463642  0.41456731  0.85464149    -0.43900
N882        N  0.91790005  0.46182797  0.64008585    -0.44300
N883        N  0.03364096  0.44080997  0.74735422    -0.41700
N884        N  0.77775851  0.30160919  0.74520215    -0.43100
H885        H  0.86704325  0.29205041  0.74667966     0.13000
H886        H  0.94425678  0.45038246  0.74748195     0.09500
H887        H  0.82629213  0.38720819  0.81243433     0.10600
H888        H  0.84468622  0.48735166  0.68095950     0.16400
C889        C  0.36499170  0.68068968  0.94393532    -0.01800
C890        C  0.33468747  0.65719275  0.97978892     0.06800
C891        C  0.33117399  0.67855888  0.53495136    -0.07800
C892        C  0.35050389  0.72311525  0.53477379     0.04200
C893        C  0.37688497  0.74727598  0.97829110    -0.15000
C894        C  0.38603595  0.72528531  0.94380541    -0.08300
C895        C  0.31234281  0.60976408  0.98193759     0.05200
C896        C  0.34114074  0.58923847  0.49998970    -0.09500
C897        C  0.32092227  0.54458683  0.49889369     0.00100
C898        C  0.27210231  0.51987131  0.98662340     0.00000
C899        C  0.24769702  0.53975346  0.98545782    -0.13000
C900        C  0.26730989  0.58421555  0.98250676     0.00500
C901        C  0.34715103  0.52538518  0.50037662     0.39800
C902        C  0.24046469  0.60266398  0.97863769     0.36400
C903        C  0.37432319  0.65982846  0.90618181     0.36100
C904        C  0.34202128  0.74343037  0.57388952     0.36900
N905        N  0.36822107  0.51003572  0.50157147    -0.43900
N906        N  0.21888593  0.61736880  0.97554092    -0.44300
N907        N  0.33543722  0.75977899  0.60532503    -0.41700
N908        N  0.38191051  0.64306626  0.87608874    -0.43100
H909        H  0.40915949  0.74305642  0.91604929     0.13000
H910        H  0.30943435  0.66021929  0.56355199     0.09500
H911        H  0.37573715  0.60820139  0.50158365     0.10600
H912        H  0.21309199  0.52040266  0.98585410     0.16400
C913        C  0.50580491  0.38493903  0.95817710    -0.01800
C914        C  0.52959337  0.37582043  0.99093232     0.06800
C915        C  0.51113944  0.34405661  0.52015712    -0.07800
C916        C  0.46652409  0.32151655  0.52311849     0.04200
C917        C  0.43924604  0.33075131  0.99585669    -0.15000
C918        C  0.46115028  0.36226235  0.96053559    -0.08300
C919        C  0.57685502  0.40109675  0.99223834     0.05200
C920        C  0.59899614  0.43169780  0.52749269    -0.09500
C921        C  0.64342472  0.45512503  0.53268871     0.00100
C922        C  0.66672867  0.44909072  0.99895941     0.00000
C923        C  0.64658739  0.41874890  0.96247825    -0.13000
C924        C  0.60194207  0.39502984  0.95865544     0.00500
C925        C  0.66153811  0.48308049  0.57347569     0.39800
C926        C  0.58252578  0.36423511  0.92058092     0.36400
C927        C  0.52659805  0.41854827  0.92306756     0.36100
C928        C  0.44749028  0.28849343  0.55915382     0.36900
N929        N  0.67610340  0.50547316  0.60612750    -0.43900
N930        N  0.56694082  0.33959983  0.89001512    -0.44300
N931        N  0.43264981  0.26216416  0.58821843    -0.41700
N932        N  0.54324140  0.44564213  0.89511290    -0.43100
H933        H  0.44351858  0.36994929  0.93496102     0.13000
H934        H  0.52957828  0.33604508  0.54415195     0.09500
H935        H  0.57911511  0.43542603  0.55341553     0.10600
H936        H  0.66581664  0.41374179  0.93684817     0.16400
C937        C  0.37036181  0.68211867  0.68847693    -0.01800
C938        C  0.34756827  0.65751949  0.72858251     0.06800
C939        C  0.34421693  0.67795349  0.76924874    -0.07800
C940        C  0.36240459  0.72229003  0.77006726     0.04200
C941        C  0.38438775  0.74685043  0.72961784    -0.15000
C942        C  0.38863680  0.72654108  0.68930349    -0.08300
C943        C  0.32633723  0.61033492  0.72895890     0.05200
C944        C  0.34195822  0.59071797  0.75946783    -0.09500
C945        C  0.32120729  0.54613646  0.76333172     0.00100
C946        C  0.28360756  0.52009598  0.73609990     0.00000
C947        C  0.26871176  0.54038530  0.70491705    -0.13000
C948        C  0.28947726  0.58485046  0.70137753     0.00500
C949        C  0.33938673  0.52875176  0.79600068     0.39800
C950        C  0.27141505  0.60363496  0.67051703     0.36400
C951        C  0.37605567  0.66250251  0.64665599     0.36100
C952        C  0.35914615  0.74205380  0.81319304     0.36900
N953        N  0.35426341  0.51520921  0.82231555    -0.43900
N954        N  0.25688695  0.61866496  0.64587466    -0.44300
N955        N  0.35668889  0.75808904  0.84765490    -0.41700
N956        N  0.38065871  0.64667605  0.61326592    -0.43100
H957        H  0.40609045  0.74542885  0.65842934     0.13000
H958        H  0.32709124  0.65912697  0.80029680     0.09500
H959        H  0.37041254  0.61046706  0.78067370     0.10600
H960        H  0.24016057  0.52162163  0.68352023     0.16400
loop_ 
_geom_bond_atom_site_label_1 
_geom_bond_atom_site_label_2 
_geom_bond_distance 
_geom_bond_site_symmetry_2 
_ccdc_geom_bond_type 
C1            N2   1.350       .  A
C1            N6   1.353       .  A
C1          C466   1.490       .  S
N2            C3   1.356       .  A
C3            N4   1.364       .  A
C3          C189   1.466       .  S
N4            C5   1.366       .  A
C5            N6   1.359       .  A
C5           C57   1.469       .  S
C7           N12   1.353       .  A
C7          N488   1.351       .  A
C7          C437   1.495       .  S
N8            C9   1.358       .  A
N8          C487   1.350   1_554  A
C9          N490   1.368       .  A
C9          C163   1.474       .  S
N10          C11   1.365       .  A
N10         C489   1.364       .  A
C11          N12   1.358       .  A
C11         C190   1.466       .  S
C13          N14   1.354       .  A
C13         N498   1.350       .  A
C13         C418   1.483       .  S
N14          C15   1.362       .  A
C15          N16   1.365       .  A
C15         C191   1.469       .  S
N16         C497   1.363       .  A
C17          N18   1.358       .  A
C17         N496   1.364   1_554  A
C17          C58   1.467       .  S
N18         C493   1.350   1_554  A
C19          N20   1.349       .  A
C19          N24   1.350       .  A
C19         C389   1.479       .  S
N20          C21   1.358   1_655  A
C21          N22   1.367   1_455  A
C21          C59   1.467       .  S
N22          C23   1.366       .  A
C23          N24   1.358       .  A
C23         C136   1.470       .  S
C25          N30   1.352       .  A
C25         N506   1.351   1_554  A
C25         C845   1.484       .  S
N26          C27   1.360       .  A
N26         C505   1.353       .  A
C27         N508   1.367       .  A
C27         C133   1.473       .  S
N28          C29   1.367   1_656  A
N28         C507   1.366       .  A
C29          N30   1.360   1_455  A
C29          C56   1.469       .  S
C31         C370   1.476       .  S
C31          C32   1.399       .  A
C31          C36   1.403       .  A
C32          C33   1.399       .  A
C32          H37   1.084       .  S
C33         C442   1.480       .  S
C33          C34   1.402       .  A
C34          C35   1.411       .  A
C34          H38   1.082       .  S
C35         C341   1.504       .  S
C35          C36   1.409       .  A
C36          H39   1.080       .  S
C40          N45   1.350   1_556  A
C40         N521   1.353       .  A
C40         C346   1.491       .  S
N41          C42   1.358       .  A
N41         C520   1.352       .  A
C42         N523   1.364       .  A
C42         C177   1.466   1_655  S
N43          C44   1.365   1_556  A
N43         C522   1.365       .  A
C44          N45   1.357       .  A
C44         C149   1.468       .  S
O46         Ni54   1.899       .  S
O46          C56   1.278       .  A
O47         Ni54   1.897       .  S
O47          C57   1.278       .  A
O48         Ni54   1.893       .  S
O48          C58   1.277       .  A
O49         Ni54   1.893       .  S
O49          C59   1.278       .  A
O50         Ni55   1.939       .  S
O50          C59   1.284       .  A
O51         Ni55   1.938       .  S
O51          C58   1.284       .  A
O52         Ni55   1.938       .  S
O52          C57   1.284       .  A
O53         Ni55   1.939       .  S
O53          C56   1.284       .  A
Ni54        Ni55   2.390       .  S
C60          N61   1.351       .  A
C60          N65   1.356       .  A
C60         C322   1.495   1_545  S
N61          C62   1.356       .  A
C62          N63   1.363       .  A
C62         C178   1.466       .  S
N63          C64   1.364       .  A
C64          N65   1.363       .  A
C64         C164   1.472       .  S
C66         C317   1.492       .  S
C66          C67   1.406       .  A
C66          C71   1.409       .  A
C67          C68   1.403       .  A
C67          H72   1.083       .  S
C68         C293   1.484       .  S
C68          C69   1.401       .  A
C69          C70   1.402       .  A
C69          H73   1.084       .  S
C70         C461   1.485       .  S
C70          C71   1.405       .  A
C71          H74   1.083       .  S
C75          N76   1.354       .  A
C75          N80   1.350       .  A
C75         C298   1.491   1_545  S
N76          C77   1.363       .  A
C77          N78   1.368       .  A
C77         C150   1.475       .  S
N78          C79   1.366       .  A
C79          N80   1.356       .  A
C79         C134   1.472       .  S
C81          N82   1.354       .  A
C81          N86   1.351       .  A
C81         C269   1.489       .  S
N82          C83   1.361       .  A
C83          N84   1.367       .  A
C83         C162   1.475       .  S
N84          C85   1.365       .  A
C85          N86   1.358       .  A
C85         C192   1.470       .  S
C87         C394   1.482       .  S
C87          C88   1.401       .  A
C87          C92   1.404       .  A
C88          C89   1.399       .  A
C88          H93   1.084       .  S
C89         C274   1.478       .  S
C89          C90   1.403       .  A
C90          C91   1.407       .  A
C90          H94   1.084       .  S
C91         C245   1.490       .  S
C91          C92   1.407       .  A
C92          H95   1.083       .  S
C96          N97   1.349       .  A
C96         N101   1.352       .  A
C96         C250   1.474       .  S
N97          C98   1.357       .  A
C98          N99   1.367       .  A
C98         C176   1.472   1_655  S
N99         C100   1.368       .  A
C100        N101   1.361       .  A
C100        C147   1.473       .  S
C102        N107   1.351       .  A
C102        N583   1.347       .  A
C102        C226   1.479   1_545  S
N103        C104   1.360       .  A
N103        C582   1.350   1_554  A
C104        N585   1.369       .  A
C104        C161   1.475       .  S
N105        C106   1.368       .  A
N105        C584   1.368       .  A
C106        N107   1.359       .  A
C106        C175   1.472       .  S
C108        C221   1.489       .  S
C108        C109   1.406       .  A
C108        C113   1.406       .  A
C109        C110   1.403       .  A
C109        H114   1.083       .  S
C110        C893   1.482       .  S
C110        C111   1.402       .  A
C111        C112   1.401       .  A
C111        H115   1.084       .  S
C112        C202   1.479       .  S
C112        C113   1.399       .  A
C113        H116   1.084       .  S
C117        N118   1.353   1_556  A
C117        N602   1.349       .  A
C117        C197   1.482       .  S
N118        C119   1.361       .  A
C119        N120   1.367   1_554  A
C119        C148   1.470       .  S
N120        C601   1.364       .  A
C121        N122   1.359       .  A
C121        N600   1.363       .  A
C121        C135   1.469       .  S
N122        C597   1.351       .  A
O123       Ni131   1.901       .  S
O123        C133   1.279       .  A
O124       Ni131   1.901       .  S
O124        C134   1.279       .  A
O125       Ni131   1.892       .  S
O125        C135   1.276       .  A
O126       Ni131   1.891       .  S
O126        C136   1.277       .  A
O127       Ni132   1.944       .  S
O127        C136   1.285       .  A
O128       Ni132   1.942       .  S
O128        C135   1.286       .  A
O129       Ni132   1.941       .  S
O129        C134   1.284       .  A
O130       Ni132   1.939       .  S
O130        C133   1.284       .  A
Ni131      Ni132   2.389       .  S
O137       Ni145   1.905       .  S
O137        C147   1.279       .  A
O138       Ni145   1.903       .  S
O138        C148   1.279   1_565  A
O139       Ni145   1.895       .  S
O139        C149   1.278       .  A
O140       Ni145   1.900       .  S
O140        C150   1.278   1_565  A
O141       Ni146   1.944       .  S
O141        C150   1.286       .  A
O142       Ni146   1.940   1_565  S
O142        C149   1.284       .  A
O143       Ni146   1.936       .  S
O143        C148   1.284       .  A
O144       Ni146   1.939   1_565  S
O144        C147   1.284       .  A
Ni145      Ni146   2.389   1_565  S
O151       Ni159   1.944       .  S
O151        C161   1.285       .  A
O152       Ni159   1.943       .  S
O152        C162   1.285       .  A
O153       Ni159   1.945       .  S
O153        C163   1.285       .  A
O154       Ni159   1.943       .  S
O154        C164   1.286       .  A
O155       Ni160   1.897       .  S
O155        C164   1.277       .  A
O156       Ni160   1.896       .  S
O156        C163   1.278       .  A
O157       Ni160   1.902       .  S
O157        C162   1.278       .  A
O158       Ni160   1.900       .  S
O158        C161   1.279       .  A
Ni159      Ni160   2.388       .  S
O165       Ni173   1.943       .  S
O165        C175   1.285       .  A
O166       Ni173   1.942   1_565  S
O166        C176   1.285       .  A
O167       Ni173   1.936   1_565  S
O167        C177   1.284       .  A
O168       Ni173   1.936       .  S
O168        C178   1.283       .  A
O169       Ni174   1.896       .  S
O169        C178   1.278   1_565  A
O170       Ni174   1.895       .  S
O170        C177   1.277       .  A
O171       Ni174   1.897       .  S
O171        C176   1.278       .  A
O172       Ni174   1.898       .  S
O172        C175   1.278   1_565  A
Ni173      Ni174   2.390   1_545  S
O179       Ni187   1.937       .  S
O179        C189   1.283       .  A
O180       Ni187   1.936       .  S
O180        C190   1.283       .  A
O181       Ni187   1.939       .  S
O181        C191   1.285       .  A
O182       Ni187   1.940       .  S
O182        C192   1.284       .  A
O183       Ni188   1.897       .  S
O183        C192   1.278       .  A
O184       Ni188   1.899       .  S
O184        C191   1.277       .  A
O185       Ni188   1.897       .  S
O185        C190   1.278       .  A
O186       Ni188   1.896       .  S
O186        C189   1.278       .  A
Ni187      Ni188   2.390       .  S
C193        C194   1.413       .  A
C193        C198   1.400       .  A
C193        C207   1.444       .  S
C194        C679   1.488       .  S
C194        C675   1.403   1_565  A
C195        C196   1.402       .  A
C195        C674   1.404   1_545  A
C195        H214   1.085       .  S
C196        C677   1.414       .  A
C196        C208   1.444       .  S
C197        C198   1.403   1_545  A
C197        C676   1.416       .  A
C198        H213   1.085   1_556  S
C199        C674   1.487       .  S
C199        C204   1.413       .  A
C199        C680   1.404       .  A
C200        C201   1.397       .  A
C200        C679   1.403   1_554  A
C200        H215   1.085       .  S
C201        C202   1.411   1_554  A
C201        C205   1.444       .  S
C202        C683   1.403       .  A
C203        C204   1.401       .  A
C203        C682   1.403       .  A
C203        H216   1.085       .  S
C204        C206   1.443       .  S
C205        N209   1.157       .  T
C206        N210   1.157       .  T
C207        N212   1.157   1_556  T
C208        N211   1.157       .  T
C217        C218   1.410   1_554  A
C217        C222   1.396   1_554  A
C217        C231   1.445       .  S
C218        C223   1.485       .  S
C218        C699   1.404       .  A
C219        C220   1.398       .  A
C219        C698   1.402       .  A
C219        H238   1.085       .  S
C220        C701   1.411       .  A
C220        C232   1.440       .  S
C221        C222   1.406       .  A
C221        C700   1.416       .  A
C222        H237   1.084   1_556  S
C223        C228   1.413   1_556  A
C223        C704   1.403       .  A
C224        C225   1.399   1_565  A
C224        C703   1.403       .  A
C224        H239   1.085   1_565  S
C225        C226   1.414   1_545  A
C225        C229   1.444       .  S
C226        C707   1.403       .  A
C227        C228   1.398       .  A
C227        C706   1.401   1_554  A
C227        H240   1.085       .  S
C228        C230   1.444       .  S
C229        N233   1.157       .  T
C230        N234   1.157       .  T
C231        N236   1.157   1_565  T
C232        N235   1.156       .  T
C241        C242   1.410       .  A
C241        C246   1.401       .  A
C241        C255   1.444       .  S
C242        C247   1.486       .  S
C242        C243   1.402       .  A
C243        C244   1.402       .  A
C243        H262   1.085       .  S
C244        C245   1.416       .  A
C244        C256   1.444       .  S
C245        C246   1.406       .  A
C246        H261   1.085       .  S
C247        C248   1.403       .  A
C247        C252   1.412       .  A
C248        C249   1.400       .  A
C248        H263   1.085       .  S
C249        C250   1.410       .  A
C249        C253   1.444       .  S
C250        C251   1.403       .  A
C251        C252   1.403       .  A
C251        H264   1.084       .  S
C252        C254   1.444       .  S
C253        N257   1.157       .  T
C254        N258   1.157       .  T
C255        N260   1.157       .  T
C256        N259   1.157       .  T
C265        C266   1.411       .  A
C265        C270   1.401       .  A
C265        C279   1.444       .  S
C266        C271   1.490       .  S
C266        C267   1.404       .  A
C267        C268   1.402       .  A
C267        H286   1.085       .  S
C268        C269   1.415       .  A
C268        C280   1.444       .  S
C269        C270   1.407       .  A
C270        H285   1.084       .  S
C271        C272   1.405       .  A
C271        C276   1.413       .  A
C272        C273   1.402       .  A
C272        H287   1.084       .  S
C273        C274   1.410       .  A
C273        C277   1.444       .  S
C274        C275   1.402       .  A
C275        C276   1.400       .  A
C275        H288   1.085       .  S
C276        C278   1.443       .  S
C277        N281   1.157       .  T
C278        N282   1.157       .  T
C279        N284   1.157       .  T
C280        N283   1.157       .  T
C289        C290   1.412       .  A
C289        C294   1.400       .  A
C289        C303   1.444       .  S
C290        C295   1.487       .  S
C290        C291   1.405       .  A
C291        C292   1.400       .  A
C291        H310   1.085       .  S
C292        C293   1.412       .  A
C292        C304   1.445       .  S
C293        C294   1.404       .  A
C294        H309   1.085       .  S
C295        C296   1.399       .  A
C295        C300   1.412       .  A
C296        C297   1.397       .  A
C296        H311   1.083       .  S
C297        C298   1.418       .  A
C297        C301   1.443   1_565  S
C298        C299   1.408       .  A
C299        C300   1.404       .  A
C299        H312   1.084       .  S
C300        C302   1.444       .  S
C301        N305   1.156       .  T
C302        N306   1.157       .  T
C303        N308   1.157       .  T
C304        N307   1.157       .  T
C313        C314   1.409       .  A
C313        C318   1.399       .  A
C313        C327   1.444       .  S
C314        C319   1.484       .  S
C314        C315   1.402       .  A
C315        C316   1.403       .  A
C315        H334   1.085       .  S
C316        C317   1.417       .  A
C316        C328   1.444       .  S
C317        C318   1.406       .  A
C318        H333   1.084       .  S
C319        C320   1.398       .  A
C319        C324   1.410       .  A
C320        C321   1.401       .  A
C320        H335   1.085       .  S
C321        C322   1.421       .  A
C321        C325   1.442       .  S
C322        C323   1.408   1_565  A
C323        C324   1.402   1_545  A
C323        H336   1.084       .  S
C324        C326   1.444       .  S
C325        N329   1.156       .  T
C326        N330   1.157       .  T
C327        N332   1.157       .  T
C328        N331   1.157       .  T
C337        C338   1.411       .  A
C337        C342   1.399       .  A
C337        C831   1.445       .  S
C338        C343   1.493       .  S
C338        C339   1.402       .  A
C339        C340   1.400       .  A
C339        H358   1.085       .  S
C340        C341   1.422       .  A
C340        C352   1.443       .  S
C341        C342   1.411       .  A
C342        H357   1.083       .  S
C343        C348   1.414       .  A
C343        C824   1.404       .  A
C344        C345   1.401       .  A
C344        C823   1.405       .  A
C344        H359   1.083       .  S
C345        C346   1.417   1_554  A
C345        C349   1.444       .  S
C346        C827   1.406       .  A
C347        C348   1.399       .  A
C347        C826   1.406       .  A
C347        H360   1.084       .  S
C348        C350   1.445       .  S
C349        N353   1.157       .  T
C350        N354   1.157       .  T
C351        C817   1.444       .  S
C351        N356   1.157       .  T
C352        N355   1.157       .  T
C361        C366   1.400       .  A
C361        C842   1.412       .  A
C361        C375   1.444       .  S
C362        C367   1.483       .  S
C362        C363   1.403       .  A
C362        C841   1.410       .  A
C363        C364   1.402       .  A
C363        H382   1.085       .  S
C364        C365   1.413       .  A
C364        C376   1.444       .  S
C365        C505   1.479       .  S
C365        C846   1.404       .  A
C366        C845   1.404       .  A
C366        H381   1.085       .  S
C367        C368   1.402       .  A
C367        C852   1.412       .  A
C368        C369   1.396       .  A
C368        H383   1.085       .  S
C369        C370   1.410       .  A
C369        C373   1.444       .  S
C370        C851   1.403       .  A
C371        C372   1.404       .  A
C371        C850   1.405       .  A
C371        H384   1.085       .  S
C372        C847   1.413       .  A
C372        C374   1.444       .  S
C373        N377   1.157       .  T
C374        N378   1.157       .  T
C375        N380   1.157       .  T
C376        N379   1.157       .  T
C385        C386   1.411       .  A
C385        C390   1.399       .  A
C385        C399   1.444       .  S
C386        C391   1.487       .  S
C386        C387   1.404       .  A
C387        C388   1.400       .  A
C387        H406   1.085       .  S
C388        C389   1.413       .  A
C388        C400   1.444       .  S
C389        C390   1.404       .  A
C390        H405   1.085       .  S
C391        C392   1.403       .  A
C391        C396   1.412       .  A
C392        C393   1.399       .  A
C392        H407   1.085       .  S
C393        C394   1.413       .  A
C393        C397   1.445       .  S
C394        C395   1.404       .  A
C395        C396   1.400       .  A
C395        H408   1.085       .  S
C396        C398   1.443       .  S
C397        N401   1.157       .  T
C398        N402   1.157       .  T
C399        N404   1.157       .  T
C400        N403   1.157   1_655  T
C409        C410   1.413       .  A
C409        C414   1.398       .  A
C409        C423   1.442       .  S
C410        C415   1.492       .  S
C410        C891   1.407       .  A
C411        C412   1.400       .  A
C411        C890   1.405   1_554  A
C411        H430   1.085       .  S
C412        C893   1.412   1_554  A
C412        C424   1.444       .  S
C413        C590   1.481       .  S
C413        C414   1.402       .  A
C413        C892   1.411       .  A
C414        H429   1.085       .  S
C415        C420   1.413       .  A
C415        C896   1.406       .  A
C416        C417   1.399       .  A
C416        C895   1.404       .  A
C416        H431   1.085       .  S
C417        C898   1.412       .  A
C417        C421   1.444       .  S
C418        C419   1.404       .  A
C418        C897   1.412       .  A
C419        C420   1.400       .  A
C419        H432   1.085       .  S
C420        C422   1.444       .  S
C421        N425   1.157       .  T
C422        N426   1.157       .  T
C423        N428   1.157       .  T
C424        N427   1.157       .  T
C433        C434   1.406       .  A
C433        C438   1.400       .  A
C433        C447   1.444       .  S
C434        C439   1.480       .  S
C434        C915   1.398       .  A
C435        C436   1.400       .  A
C435        C914   1.399   1_554  A
C435        H454   1.084       .  S
C436        C917   1.421   1_554  A
C436        C448   1.445       .  S
C437        C438   1.412       .  A
C437        C916   1.422       .  A
C438        H453   1.084       .  S
C439        C444   1.409       .  A
C439        C920   1.401       .  A
C440        C441   1.399       .  A
C440        C919   1.401   1_554  A
C440        H455   1.085       .  S
C441        C922   1.413   1_554  A
C441        C445   1.445       .  S
C442        C443   1.405       .  A
C442        C921   1.412       .  A
C443        C444   1.402       .  A
C443        H456   1.085       .  S
C444        C446   1.443       .  S
C445        N449   1.157       .  T
C446        N450   1.157       .  T
C447        N452   1.157       .  T
C448        N451   1.158       .  T
C457        C458   1.410       .  A
C457        C462   1.399       .  A
C457        C471   1.444       .  S
C458        C463   1.484       .  S
C458        C459   1.403       .  A
C459        C460   1.400       .  A
C459        H478   1.085       .  S
C460        C461   1.413       .  A
C460        C472   1.442       .  S
C461        C462   1.406       .  A
C462        H477   1.085       .  S
C463        C464   1.399       .  A
C463        C468   1.409       .  A
C464        C465   1.397       .  A
C464        H479   1.081       .  S
C465        C466   1.419       .  A
C465        C469   1.445       .  S
C466        C467   1.409       .  A
C467        C468   1.401       .  A
C467        H480   1.084       .  S
C468        C470   1.444       .  S
C469        N473   1.157       .  T
C470        N474   1.157       .  T
C471        N476   1.157       .  T
C472        N475   1.156       .  T
C481        N482   1.355       .  A
C481        N486   1.352       .  A
C481        C946   1.497       .  S
N482        C483   1.361       .  A
C483        N484   1.366       .  A
C483        C669   1.472       .  S
N484        C485   1.364       .  A
C485        N486   1.355       .  A
C485        C537   1.468       .  S
C487        N492   1.351       .  A
C487        C917   1.494       .  S
N488        C489   1.358       .  A
C489        C643   1.468       .  S
N490        C491   1.369   1_554  A
C491        N492   1.357       .  A
C491        C670   1.471       .  S
C493        N494   1.351       .  A
C493        C898   1.478       .  S
N494        C495   1.359       .  A
C495        N496   1.365       .  A
C495        C671   1.466       .  S
C497        N498   1.357       .  A
C497        C538   1.467       .  S
C499        N500   1.351       .  A
C499        N504   1.349       .  A
C499        C869   1.479       .  S
N500        C501   1.360   1_655  A
C501        N502   1.366   1_455  A
C501        C539   1.469       .  S
N502        C503   1.365       .  A
C503        N504   1.357       .  A
C503        C616   1.466       .  S
C505        N510   1.349       .  A
N506        C507   1.359       .  A
C507        C613   1.472       .  S
N508        C509   1.366   1_655  A
C509        N510   1.355   1_455  A
C509        C536   1.468       .  S
C511        C850   1.482       .  S
C511        C512   1.398       .  A
C511        C516   1.407       .  A
C512        C513   1.399       .  A
C512        H517   1.084       .  S
C513        C922   1.482   1_554  S
C513        C514   1.403   1_554  A
C514        C515   1.412   1_556  A
C514        H518   1.082       .  S
C515        C821   1.510       .  S
C515        C516   1.413       .  A
C516        H519   1.080       .  S
C520        N525   1.351       .  A
C520        C826   1.487       .  S
N521        C522   1.361       .  A
C522        C657   1.470   1_655  S
N523        C524   1.363       .  A
C524        N525   1.357       .  A
C524        C629   1.465       .  S
O526       Ni534   1.898       .  S
O526        C536   1.279       .  A
O527       Ni534   1.899       .  S
O527        C537   1.279       .  A
O528       Ni534   1.890       .  S
O528        C538   1.276       .  A
O529       Ni534   1.892       .  S
O529        C539   1.276       .  A
O530       Ni535   1.943       .  S
O530        C539   1.286       .  A
O531       Ni535   1.941       .  S
O531        C538   1.285       .  A
O532       Ni535   1.937       .  S
O532        C537   1.283       .  A
O533       Ni535   1.937       .  S
O533        C536   1.283       .  A
Ni534      Ni535   2.390       .  S
C540        N541   1.353   1_545  A
C540        N545   1.353       .  A
C540        C802   1.491   1_545  S
N541        C542   1.360   1_565  A
C542        N543   1.364       .  A
C542        C658   1.470       .  S
N543        C544   1.364       .  A
C544        N545   1.359       .  A
C544        C644   1.468       .  S
C546        C797   1.480       .  S
C546        C547   1.404       .  A
C546        C551   1.403       .  A
C547        C548   1.402       .  A
C547        H552   1.084       .  S
C548        C773   1.477       .  S
C548        C549   1.401       .  A
C549        C550   1.400       .  A
C549        H553   1.084       .  S
C550        C941   1.478       .  S
C550        C551   1.404       .  A
C551        H554   1.084       .  S
C555        N556   1.352       .  A
C555        N560   1.351       .  A
C555        C778   1.497       .  S
N556        C557   1.358       .  A
C557        N558   1.365       .  A
C557        C630   1.467       .  S
N558        C559   1.364       .  A
C559        N560   1.359       .  A
C559        C614   1.470       .  S
C561        N562   1.353       .  A
C561        N566   1.352       .  A
C561        C749   1.485       .  S
N562        C563   1.360       .  A
C563        N564   1.365       .  A
C563        C642   1.469       .  S
N564        C565   1.364       .  A
C565        N566   1.358       .  A
C565        C672   1.468       .  S
C567        C874   1.481       .  S
C567        C568   1.402       .  A
C567        C572   1.403       .  A
C568        C569   1.399       .  A
C568        H573   1.084       .  S
C569        C754   1.474       .  S
C569        C570   1.401       .  A
C570        C571   1.405       .  A
C570        H574   1.084       .  S
C571        C725   1.486       .  S
C571        C572   1.404       .  A
C572        H575   1.084       .  S
C576        N577   1.348       .  A
C576        N581   1.350       .  A
C576        C730   1.468       .  S
N577        C578   1.356       .  A
C578        N579   1.366       .  A
C578        C656   1.469   1_655  S
N579        C580   1.367       .  A
C580        N581   1.360       .  A
C580        C627   1.469       .  S
C582        N587   1.347       .  A
C582        C706   1.472   1_545  S
N583        C584   1.356       .  A
C584        C641   1.469       .  S
N585        C586   1.369   1_554  A
C586        N587   1.356       .  A
C586        C655   1.469       .  S
C588        C701   1.481       .  S
C588        C589   1.404       .  A
C588        C593   1.404       .  A
C589        C590   1.405       .  A
C589        H594   1.084       .  S
C590        C591   1.401       .  A
C591        C592   1.401       .  A
C591        H595   1.084       .  S
C592        C682   1.480       .  S
C592        C593   1.401       .  A
C593        H596   1.084       .  S
C597        N598   1.352       .  A
C597        C677   1.481       .  S
N598        C599   1.359       .  A
C599        N600   1.364       .  A
C599        C628   1.467       .  S
C601        N602   1.355       .  A
C601        C615   1.468       .  S
O603       Ni611   1.894       .  S
O603        C613   1.277       .  A
O604       Ni611   1.892       .  S
O604        C614   1.277       .  A
O605       Ni611   1.893       .  S
O605        C615   1.278       .  A
O606       Ni611   1.893       .  S
O606        C616   1.278       .  A
O607       Ni612   1.938       .  S
O607        C616   1.284       .  A
O608       Ni612   1.939       .  S
O608        C615   1.284       .  A
O609       Ni612   1.943       .  S
O609        C614   1.285       .  A
O610       Ni612   1.945       .  S
O610        C613   1.286       .  A
Ni611      Ni612   2.390       .  S
O617       Ni625   1.902       .  S
O617        C627   1.279       .  A
O618       Ni625   1.900       .  S
O618        C628   1.278   1_565  A
O619       Ni625   1.894       .  S
O619        C629   1.277       .  A
O620       Ni625   1.895       .  S
O620        C630   1.278   1_565  A
O621       Ni626   1.937       .  S
O621        C630   1.284       .  A
O622       Ni626   1.936   1_565  S
O622        C629   1.284       .  A
O623       Ni626   1.934       .  S
O623        C628   1.283       .  A
O624       Ni626   1.936   1_565  S
O624        C627   1.284       .  A
Ni625      Ni626   2.391   1_565  S
O631       Ni639   1.940       .  S
O631        C641   1.284       .  A
O632       Ni639   1.939       .  S
O632        C642   1.285       .  A
O633       Ni639   1.940       .  S
O633        C643   1.284       .  A
O634       Ni639   1.939       .  S
O634        C644   1.285       .  A
O635       Ni640   1.895       .  S
O635        C644   1.277       .  A
O636       Ni640   1.893       .  S
O636        C643   1.277       .  A
O637       Ni640   1.896       .  S
O637        C642   1.277       .  A
O638       Ni640   1.893       .  S
O638        C641   1.278       .  A
Ni639      Ni640   2.390       .  S
O645       Ni653   1.940       .  S
O645        C655   1.283       .  A
O646       Ni653   1.939   1_565  S
O646        C656   1.284       .  A
O647       Ni653   1.942   1_565  S
O647        C657   1.285       .  A
O648       Ni653   1.942       .  S
O648        C658   1.286       .  A
O649       Ni654   1.894       .  S
O649        C658   1.277   1_565  A
O650       Ni654   1.894       .  S
O650        C657   1.277       .  A
O651       Ni654   1.896       .  S
O651        C656   1.278       .  A
O652       Ni654   1.897       .  S
O652        C655   1.279   1_565  A
Ni653      Ni654   2.390   1_545  S
O659       Ni667   1.938       .  S
O659        C669   1.284       .  A
O660       Ni667   1.939       .  S
O660        C670   1.283       .  A
O661       Ni667   1.937       .  S
O661        C671   1.284       .  A
O662       Ni667   1.938       .  S
O662        C672   1.284       .  A
O663       Ni668   1.896       .  S
O663        C672   1.278       .  A
O664       Ni668   1.895       .  S
O664        C671   1.277       .  A
O665       Ni668   1.901       .  S
O665        C670   1.280       .  A
O666       Ni668   1.903       .  S
O666        C669   1.279       .  A
Ni667      Ni668   2.390       .  S
C673        C674   1.412       .  A
C673        C678   1.398       .  A
C673        C687   1.444       .  S
C675        C676   1.400       .  A
C675        H694   1.085       .  S
C676        C688   1.445       .  S
C677        C678   1.403   1_545  A
C678        H693   1.085       .  S
C679        C684   1.414       .  A
C680        C681   1.398       .  A
C680        H695   1.085       .  S
C681        C682   1.412       .  A
C681        C685   1.445       .  S
C683        C684   1.401       .  A
C683        H696   1.085       .  S
C684        C686   1.443       .  S
C685        N689   1.157       .  T
C686        N690   1.157       .  T
C687        N692   1.157       .  T
C688        N691   1.157       .  T
C697        C698   1.413       .  A
C697        C702   1.399       .  A
C697        C711   1.444       .  S
C698        C703   1.486       .  S
C699        C700   1.402       .  A
C699        H718   1.085       .  S
C700        C712   1.444       .  S
C701        C702   1.403       .  A
C702        H717   1.085       .  S
C703        C708   1.412       .  A
C704        C705   1.400       .  A
C704        H719   1.085       .  S
C705        C706   1.412       .  A
C705        C709   1.444   1_565  S
C707        C708   1.399       .  A
C707        H720   1.085       .  S
C708        C710   1.444       .  S
C709        N713   1.157       .  T
C710        N714   1.157       .  T
C711        N716   1.157       .  T
C712        N715   1.157       .  T
C721        C722   1.409       .  A
C721        C726   1.400       .  A
C721        C735   1.443       .  S
C722        C727   1.481       .  S
C722        C723   1.400       .  A
C723        C724   1.398       .  A
C723        H742   1.084       .  S
C724        C725   1.415       .  A
C724        C736   1.444       .  S
C725        C726   1.406       .  A
C726        H741   1.085       .  S
C727        C728   1.402       .  A
C727        C732   1.411       .  A
C728        C729   1.398       .  A
C728        H743   1.084       .  S
C729        C730   1.409       .  A
C729        C733   1.444       .  S
C730        C731   1.402       .  A
C731        C732   1.400       .  A
C731        H744   1.085       .  S
C732        C734   1.444       .  S
C733        N737   1.157       .  T
C734        N738   1.157       .  T
C735        N740   1.157       .  T
C736        N739   1.157       .  T
C745        C746   1.408       .  A
C745        C750   1.399       .  A
C745        C759   1.444       .  S
C746        C751   1.483       .  S
C746        C747   1.402       .  A
C747        C748   1.401       .  A
C747        H766   1.085       .  S
C748        C749   1.416       .  A
C748        C760   1.444       .  S
C749        C750   1.406       .  A
C750        H765   1.085       .  S
C751        C752   1.404       .  A
C751        C756   1.411       .  A
C752        C753   1.401       .  A
C752        H767   1.084       .  S
C753        C754   1.409       .  A
C753        C757   1.444       .  S
C754        C755   1.401       .  A
C755        C756   1.399       .  A
C755        H768   1.085       .  S
C756        C758   1.443       .  S
C757        N761   1.157       .  T
C758        N762   1.157       .  T
C759        N764   1.157       .  T
C760        N763   1.157       .  T
C769        C770   1.410       .  A
C769        C774   1.402       .  A
C769        C783   1.444       .  S
C770        C775   1.481       .  S
C770        C771   1.402       .  A
C771        C772   1.398       .  A
C771        H790   1.085       .  S
C772        C773   1.411       .  A
C772        C784   1.445       .  S
C773        C774   1.404       .  A
C774        H789   1.085       .  S
C775        C776   1.398       .  A
C775        C780   1.406       .  A
C776        C777   1.401   1_565  A
C776        H791   1.084   1_565  S
C777        C778   1.422       .  A
C777        C781   1.444       .  S
C778        C779   1.412   1_545  A
C779        C780   1.400       .  A
C779        H792   1.084       .  S
C780        C782   1.445       .  S
C781        N785   1.158       .  T
C782        N786   1.157       .  T
C783        N788   1.157       .  T
C784        N787   1.157       .  T
C793        C794   1.410       .  A
C793        C798   1.401       .  A
C793        C807   1.444       .  S
C794        C799   1.482       .  S
C794        C795   1.402       .  A
C795        C796   1.400       .  A
C795        H814   1.085       .  S
C796        C797   1.412       .  A
C796        C808   1.444       .  S
C797        C798   1.404       .  A
C798        H813   1.085       .  S
C799        C800   1.400       .  A
C799        C804   1.407       .  A
C800        C801   1.403       .  A
C800        H815   1.085       .  S
C801        C802   1.419       .  A
C801        C805   1.444       .  S
C802        C803   1.408   1_565  A
C803        C804   1.399   1_545  A
C803        H816   1.084       .  S
C804        C806   1.444   1_565  S
C805        N809   1.157       .  T
C806        N810   1.157       .  T
C807        N812   1.157       .  T
C808        N811   1.157       .  T
C817        C818   1.411       .  A
C817        C822   1.402       .  A
C818        C823   1.498       .  S
C818        C819   1.403   1_554  A
C819        C820   1.402       .  A
C819        H838   1.085       .  S
C820        C821   1.422   1_556  A
C820        C832   1.442       .  S
C821        C822   1.413       .  A
C822        H837   1.083       .  S
C823        C828   1.414   1_554  A
C824        C825   1.399       .  A
C824        H839   1.083       .  S
C825        C826   1.416       .  A
C825        C829   1.444       .  S
C827        C828   1.401       .  A
C827        H840   1.083       .  S
C828        C830   1.443       .  S
C829        N833   1.157       .  T
C830        N834   1.157       .  T
C831        N836   1.157       .  T
C832        N835   1.157       .  T
C841        C846   1.397       .  A
C841        C855   1.444       .  S
C842        C847   1.489       .  S
C842        C843   1.403       .  A
C843        C844   1.402       .  A
C843        H862   1.084       .  S
C844        C845   1.415       .  A
C844        C856   1.444       .  S
C846        H861   1.085       .  S
C847        C848   1.403   1_554  A
C848        C849   1.398       .  A
C848        H863   1.085       .  S
C849        C850   1.411   1_556  A
C849        C853   1.443       .  S
C851        C852   1.403       .  A
C851        H864   1.085       .  S
C852        C854   1.443       .  S
C853        N857   1.157       .  T
C854        N858   1.157       .  T
C855        N860   1.157       .  T
C856        N859   1.157       .  T
C865        C866   1.412       .  A
C865        C870   1.399       .  A
C865        C879   1.444       .  S
C866        C871   1.488       .  S
C866        C867   1.404       .  A
C867        C868   1.401       .  A
C867        H886   1.085       .  S
C868        C869   1.412       .  A
C868        C880   1.444       .  S
C869        C870   1.404       .  A
C870        H885   1.085       .  S
C871        C872   1.405       .  A
C871        C876   1.413       .  A
C872        C873   1.400       .  A
C872        H887   1.085       .  S
C873        C874   1.413       .  A
C873        C877   1.445       .  S
C874        C875   1.403       .  A
C875        C876   1.399       .  A
C875        H888   1.085       .  S
C876        C878   1.444       .  S
C877        N881   1.158       .  T
C878        N882   1.157       .  T
C879        N884   1.157       .  T
C880        N883   1.157   1_655  T
C889        C890   1.413       .  A
C889        C894   1.398       .  A
C889        C903   1.444       .  S
C890        C895   1.488       .  S
C891        C892   1.401       .  A
C891        H910   1.084       .  S
C892        C904   1.445       .  S
C893        C894   1.403       .  A
C894        H909   1.085       .  S
C895        C900   1.413       .  A
C896        C897   1.402       .  A
C896        H911   1.084       .  S
C897        C901   1.443       .  S
C898        C899   1.404       .  A
C899        C900   1.400       .  A
C899        H912   1.085       .  S
C900        C902   1.444       .  S
C901        N905   1.157       .  T
C902        N906   1.157       .  T
C903        N908   1.157       .  T
C904        N907   1.157       .  T
C913        C914   1.406       .  A
C913        C918   1.399       .  A
C913        C927   1.444       .  S
C914        C919   1.480       .  S
C915        C916   1.399       .  A
C915        H934   1.084       .  S
C916        C928   1.445       .  S
C917        C918   1.411       .  A
C918        H933   1.084       .  S
C919        C924   1.409       .  A
C920        C921   1.397       .  A
C920        H935   1.085       .  S
C921        C925   1.445       .  S
C922        C923   1.405       .  A
C923        C924   1.401       .  A
C923        H936   1.084       .  S
C924        C926   1.444       .  S
C925        N929   1.157       .  T
C926        N930   1.157       .  T
C927        N932   1.157       .  T
C928        N931   1.158       .  T
C937        C938   1.411       .  A
C937        C942   1.401       .  A
C937        C951   1.444       .  S
C938        C943   1.482       .  S
C938        C939   1.402       .  A
C939        C940   1.399       .  A
C939        H958   1.085       .  S
C940        C941   1.411       .  A
C940        C952   1.444       .  S
C941        C942   1.404       .  A
C942        H957   1.085       .  S
C943        C944   1.400       .  A
C943        C948   1.406       .  A
C944        C945   1.402       .  A
C944        H959   1.085       .  S
C945        C946   1.421       .  A
C945        C949   1.444       .  S
C946        C947   1.412       .  A
C947        C948   1.398       .  A
C947        H960   1.084       .  S
C948        C950   1.445       .  S
C949        N953   1.157       .  T
C950        N954   1.157       .  T
C951        N956   1.157       .  T
C952        N955   1.157       .  T
