geometry optimzed in LAMMPS
_audit_creation_date              2020-12-01 
_audit_creation_method            'lammps2cif' 
_symmetry_space_group_name_H-M    'P1' 
_symmetry_Int_Tables_number       1 
_symmetry_cell_setting            triclinic 
loop_ 
_symmetry_equiv_pos_as_xyz 
  x,y,z 
_cell_length_a                    38.10944581 
_cell_length_b                    34.92025884838883 
_cell_length_c                    33.764043269975225 
_cell_angle_alpha                 90.09508371523115 
_cell_angle_beta                  99.07773483268338 
_cell_angle_gamma                 88.20753882723668 
loop_ 
_atom_site_label 
_atom_site_type_symbol 
_atom_site_fract_x 
_atom_site_fract_y 
_atom_site_fract_z 
_atom_site_charge 
C1          C  0.99517396  0.99626400  0.44823515     0.30400
C2          C  0.97730992  0.31642824  0.36831446     0.30400
C3          C  0.96556824  0.02271192  0.42629888    -0.05800
C4          C  0.02585055  0.00096109  0.42172333    -0.06600
C5          C  0.98114121  0.28818379  0.43636205    -0.06500
C6          C  0.95354627  0.01145692  0.38817549    -0.05800
C7          C  0.01494390  0.33023771  0.37990098    -0.06600
C8          C  0.97906910  0.28048322  0.39490159    -0.06500
C9          C  0.91811736  0.02246627  0.38156508    -0.31800
N10         N  0.91240581  0.05193056  0.40570153     0.14700
C11         C  0.94142686  0.05091797  0.43517554    -0.31900
H12         H  0.94450185  0.06913897  0.46136568     0.16600
C13         C  0.04452008  0.32070479  0.36255288    -0.30800
N14         N  0.07332019  0.31841415  0.39141615     0.13400
C15         C  0.06251634  0.32463565  0.42731969    -0.30800
C16         C  0.95796959  0.25080199  0.38629166    -0.31100
N17         N  0.93690768  0.24749799  0.41333411     0.13900
H18         H  0.95728131  0.23241653  0.36101456     0.16500
C19         C  0.95162371  0.26779547  0.44594385    -0.31100
H20         H  0.94099621  0.26852212  0.47370496     0.16500
H21         H  0.08001950  0.31929509  0.45528899     0.16500
H22         H  0.89823207  0.01392615  0.35734488     0.16600
H23         H  0.04467069  0.31346298  0.33140767     0.16500
O24         O  0.96127191  0.11657837  0.30543542    -0.80500
O25         O  0.80247801  0.11971798  0.31990936    -0.65200
O26         O  0.89744251  0.13366871  0.30558110    -1.11800
C27         C  0.90720490  0.22345341  0.40254931     1.06400
O28         O  0.79467120  0.18444250  0.32431962    -0.78400
O29         O  0.84974149  0.21597536  0.29723847    -0.66000
Ni30       Ni  0.92181404  0.08877471  0.31608133     1.34900
C31         C  0.88012185  0.22749696  0.29362451     0.85100
O32         O  0.85194470  0.07616516  0.27724326    -0.78900
O33         O  0.90740150  0.07437635  0.26262837    -0.89200
C34         C  0.78241764  0.15067523  0.31809609     0.84700
O35         O  0.92723554  0.10224756  0.37006504    -0.67400
O36         O  0.87892094  0.23627741  0.37934656    -0.86700
C37         C  0.90185983  0.08525024  0.38182275     0.85500
C38         C  0.87789941  0.05813769  0.26245231     1.07100
H39         H  0.85660921  0.15102321  0.37999065     0.38900
O40         O  0.85977328  0.16115512  0.35421723    -1.09400
O41         O  0.90635118  0.21152513  0.31719686    -0.66000
Ni42       Ni  0.90807599  0.16371020  0.35173243     1.26300
O43         O  0.87040482  0.08710649  0.36008341    -0.66200
O44         O  0.91559043  0.18868531  0.40175789    -0.78500
C45         C  0.97079567  0.14840203  0.32172805     0.84900
O46         O  0.95729221  0.16303625  0.35022376    -0.65700
Ni47       Ni  0.83700239  0.20886158  0.34975787     1.27400
Ni48       Ni  0.85234307  0.12213530  0.31405300     1.26100
H49         H  0.89833661  0.14600199  0.28015464     0.39500
C50         C  0.88190545  0.26832022  0.27326173     0.30400
C51         C  0.87919236  0.01345074  0.26037489     0.30400
C52         C  0.91076539  0.29128691  0.29783876    -0.05800
C53         C  0.88843701  0.28108882  0.22997962    -0.06600
C54         C  0.84651772  0.29030526  0.27674402    -0.06500
C55         C  0.90982544  0.99711199  0.29150551    -0.05800
C56         C  0.88523108  0.98906942  0.22311629    -0.06600
C57         C  0.84616691  0.99639774  0.27185552    -0.06500
C58         C  0.94420609  0.00892503  0.30508108    -0.31800
N59         N  0.96427482  0.31295868  0.32423948     0.14700
C60         C  0.94615369  0.28203049  0.30975551    -0.31900
H61         H  0.95885439  0.25481096  0.30447050     0.16600
C62         C  0.90927277  0.99805289  0.19832507    -0.30800
N63         N  0.92862899  0.29995070  0.19092168     0.13400
C64         C  0.91708435  0.26985409  0.21061823    -0.29600
C65         C  0.81143933  0.00819020  0.26060648    -0.31100
N66         N  0.79000046  0.31141753  0.25947645     0.13900
H67         H  0.80234634  0.03664794  0.25027749     0.16500
C68         C  0.81087869  0.27966091  0.26730064    -0.31100
H69         H  0.80073441  0.25112737  0.26342086     0.16500
H70         H  0.93247923  0.24346795  0.21707469     0.16500
H71         H  0.95273667  0.03807639  0.30669049     0.16600
H72         H  0.91773057  0.02685437  0.19398228     0.16500
C73         C  0.05646131  0.33271919  0.20548750     0.30400
C74         C  0.03725960  0.00357615  0.12498200     0.30400
C75         C  0.07720395  0.30648511  0.18126292    -0.05800
C76         C  0.01808027  0.32489398  0.19132752    -0.06600
C77         C  0.06422889  0.03705160  0.18727479    -0.06500
C78         C  0.06626831  0.30479284  0.14031119    -0.05800
C79         C  0.00709388  0.32591201  0.15025921    -0.06600
C80         C  0.05273927  0.04184310  0.14602852    -0.06500
C81         C  0.09484674  0.28546501  0.12630313    -0.31800
N82         N  0.12378080  0.28294887  0.15619533     0.14700
C83         C  0.11337485  0.30180785  0.18659306    -0.31900
H84         H  0.13185071  0.31010140  0.21233033     0.16600
C85         C  0.97247509  0.31132443  0.14569571    -0.30800
N86         N  0.96360453  0.30324301  0.18234624     0.13400
C87         C  0.99158397  0.31150781  0.21041349    -0.30800
C88         C  0.07612254  0.06948151  0.13506145    -0.31100
N89         N  0.10400765  0.07465407  0.16532967     0.13900
H90         H  0.07405754  0.08283898  0.10586839     0.16500
C91         C  0.09715385  0.05289476  0.19505502    -0.31100
H92         H  0.11683955  0.04842687  0.22122112     0.16500
H93         H  0.99229460  0.30868210  0.24245499     0.16500
H94         H  0.09533705  0.27618869  0.09581426     0.16600
H95         H  0.95485457  0.30554059  0.11821345     0.16500
O96         O  0.06917002  0.15021685  0.25945283    -0.80500
O97         O  0.22591596  0.12197359  0.24241404    -0.65200
O98         O  0.13380614  0.15321404  0.26031298    -1.11800
C99         C  0.14280568  0.24897816  0.17214486     1.06400
O100        O  0.23551430  0.18118673  0.26525817    -0.78400
O101        O  0.18374484  0.22552169  0.28201725    -0.66000
Ni102      Ni  0.10478993  0.11422748  0.24706070     1.34900
C103        C  0.15411486  0.24273502  0.28035275     0.85100
O104        O  0.17431910  0.08738197  0.28445204    -0.78900
O105        O  0.11910954  0.09229068  0.29957900    -0.89200
C106        C  0.24732595  0.14948649  0.25317498     0.84700
O107        O  0.10014555  0.13233859  0.19398531    -0.67400
O108        O  0.17181608  0.25244979  0.19784985    -0.86700
C109        C  0.12122445  0.10859579  0.18124546     0.85500
C110        C  0.14893768  0.07335284  0.30152681     1.07100
H111        H  0.17896230  0.16851731  0.18898355     0.38900
O112        O  0.17508778  0.17618900  0.21551594    -1.09400
O113        O  0.13012456  0.23237521  0.25226632    -0.66000
Ni114      Ni  0.12712316  0.18767113  0.21631709     1.26300
O115        O  0.15363648  0.10475114  0.20115690    -0.66200
O116        O  0.12474176  0.21911707  0.17069187    -0.78500
C117        C  0.06144146  0.18310169  0.24244921     0.84900
O118        O  0.07822298  0.19709999  0.21683184    -0.65700
Ni119      Ni  0.20387352  0.21631816  0.23305387     1.27400
Ni120      Ni  0.17710681  0.13344154  0.25012581     1.26100
H121        H  0.13446048  0.16416087  0.28672546     0.39500
C122        C  0.15167955  0.28326024  0.30040643     0.30400
C123        C  0.15045255  0.02889167  0.31007660     0.30400
C124        C  0.11901110  0.30557079  0.28007623    -0.05800
C125        C  0.14941845  0.29716916  0.34469355    -0.06600
C126        C  0.18392602  0.30447438  0.29075913    -0.06500
C127        C  0.11830754  0.01130820  0.28472316    -0.05800
C128        C  0.14972309  0.00577155  0.34979455    -0.06600
C129        C  0.18302940  0.01055503  0.29512486    -0.06500
C130        C  0.08382091  0.02363002  0.27078670    -0.31800
N131        N  0.06716108  0.32830448  0.24932056     0.14700
C132        C  0.08536325  0.29594340  0.26299689    -0.31900
H133        H  0.07714624  0.26783976  0.25314071     0.16600
C134        C  0.12549816  0.01454399  0.37523664    -0.30800
N135        N  0.10892498  0.31613540  0.38423495     0.13400
C136        C  0.12316961  0.28569090  0.36647829    -0.30800
C137        C  0.21812994  0.02109453  0.30298257    -0.31100
N138        N  0.24013475  0.32341361  0.30208120     0.13900
H139        H  0.22722477  0.04908776  0.31288481     0.16500
C140        C  0.21984762  0.29266774  0.29614139    -0.31100
H141        H  0.23113264  0.26393169  0.29962542     0.16500
H142        H  0.10991790  0.25872083  0.36171017     0.16500
H143        H  0.07388903  0.05297073  0.26866533     0.16600
H144        H  0.11427096  0.04310818  0.37805716     0.16500
C145        C  0.53715103  0.17444026  0.11780523     0.30400
C146        C  0.55609925  0.16493354  0.19824862     0.30400
C147        C  0.56199787  0.20620448  0.13848466    -0.05800
C148        C  0.50581646  0.17477743  0.14403357    -0.06600
C149        C  0.56034089  0.13747626  0.13169961    -0.06500
C150        C  0.57421785  0.19731816  0.17855641    -0.05800
C151        C  0.51669840  0.17147514  0.18560992    -0.06600
C152        C  0.56297087  0.13047788  0.17260758    -0.06500
C153        C  0.61012338  0.20456670  0.18384346    -0.31800
N154        N  0.61767761  0.23021163  0.15738811     0.14700
C155        C  0.58895658  0.22884534  0.12731920    -0.31900
H156        H  0.58907492  0.24120067  0.09803608     0.16600
C157        C  0.48900117  0.15738897  0.20253029    -0.30800
N158        N  0.46057734  0.15317091  0.17365135     0.13400
C159        C  0.47007480  0.16390845  0.13789505    -0.30800
C160        C  0.58945235  0.10554861  0.18253355    -0.31100
N161        N  0.61043379  0.10255143  0.15520622     0.13900
H162        H  0.58769161  0.08402864  0.20396887     0.16500
C163        C  0.59238190  0.12068468  0.12182411    -0.31100
H164        H  0.60203689  0.12301184  0.09349795     0.16500
H165        H  0.45304327  0.16174864  0.10919590     0.16500
H166        H  0.63020670  0.19404681  0.20749627     0.16600
H167        H  0.48995851  0.14926424  0.23361994     0.16500
O168        O  0.57291989  0.30543956  0.25444948    -0.80500
O169        O  0.73124000  0.28739660  0.24359025    -0.65200
O170        O  0.63703549  0.31265949  0.25625198    -1.11800
C171        C  0.63789542  0.07376384  0.16498132     1.06400
O172        O  0.74045961  0.01738822  0.25352839    -0.78400
O173        O  0.68553823  0.05583775  0.27444078    -0.66000
Ni174      Ni  0.61060760  0.27117825  0.24460823     1.34900
C175        C  0.65512227  0.07085827  0.27470447     0.85100
O176        O  0.68027557  0.25004331  0.28428494    -0.78900
O177        O  0.62469614  0.25420158  0.29829356    -0.89200
C178        C  0.75202478  0.31606206  0.25110548     0.84700
O179        O  0.60602056  0.28508607  0.19044726    -0.67400
O180        O  0.66555075  0.08157573  0.19102581    -0.86700
C181        C  0.63021430  0.26413989  0.17907002     0.85500
C182        C  0.65427724  0.23532691  0.29983369     1.07100
H183        H  0.68235430  0.32811388  0.18569684     0.38900
O184        O  0.67798418  0.00378663  0.21162176    -1.09400
O185        O  0.63071544  0.05792539  0.24807865    -0.66000
Ni186      Ni  0.62971064  0.01196873  0.21126091     1.26300
O187        O  0.66196609  0.26334042  0.20076354    -0.66200
O188        O  0.62669818  0.04030161  0.16290181    -0.78500
C189        C  0.56444796  0.33762202  0.23655604     0.84900
O190        O  0.58027062  0.01741587  0.20974139    -0.65700
Ni191      Ni  0.70289907  0.04810550  0.22383257     1.27400
Ni192      Ni  0.68171631  0.29571479  0.24863358     1.26100
H193        H  0.63646272  0.32458915  0.28201999     0.39500
C194        C  0.65224870  0.11219168  0.29444018     0.30400
C195        C  0.65393294  0.19090455  0.30486986     0.30400
C196        C  0.62250348  0.13626692  0.26973673    -0.05800
C197        C  0.64569497  0.12669509  0.33755626    -0.06600
C198        C  0.68742155  0.13196163  0.29017941    -0.06500
C199        C  0.62344108  0.17547123  0.27462250    -0.05800
C200        C  0.64814454  0.16814737  0.34302236    -0.06600
C201        C  0.68750119  0.17142279  0.29407804    -0.06500
C202        C  0.58904644  0.18952693  0.26121783    -0.31800
N203        N  0.56892982  0.16147856  0.24261992     0.14700
C204        C  0.58671394  0.12949266  0.25861037    -0.31900
H205        H  0.57454952  0.10208493  0.25977759     0.16600
C206        C  0.62364987  0.17929622  0.36725083    -0.30800
N207        N  0.60477906  0.14918063  0.37578086     0.13400
C208        C  0.61711022  0.11775333  0.35733639    -0.30800
C209        C  0.72249142  0.18116898  0.30519394    -0.31100
N210        N  0.74422533  0.14961013  0.30721404     0.13900
H211        H  0.73136789  0.20928197  0.31491179     0.16500
C212        C  0.72322464  0.11924044  0.29988458    -0.31100
H213        H  0.73341345  0.09017769  0.30507642     0.16500
H214        H  0.60217757  0.09191030  0.35192650     0.16500
H215        H  0.58072117  0.21932414  0.25850837     0.16600
H216        H  0.61457262  0.20869621  0.37025521     0.16500
C217        C  0.49229043  0.16743960  0.43990471     0.30400
C218        C  0.47327818  0.15597286  0.35990389     0.30400
C219        C  0.46178732  0.19419051  0.41969539    -0.05800
C220        C  0.52236496  0.17283956  0.41322408    -0.06600
C221        C  0.47649850  0.12730446  0.42648497    -0.06500
C222        C  0.44995144  0.18469206  0.38062990    -0.05800
C223        C  0.51122659  0.16898491  0.37139244    -0.06600
C224        C  0.47545665  0.11938372  0.38551163    -0.06500
C225        C  0.41439926  0.19558927  0.37435009    -0.31800
N226        N  0.40806111  0.22354778  0.39999221     0.14700
C227        C  0.43667226  0.22069289  0.43022005    -0.31900
H228        H  0.43903764  0.23681776  0.45784785     0.16600
C229        C  0.54061575  0.15731928  0.35461407    -0.30800
N230        N  0.56942260  0.15456484  0.38352019     0.13400
C231        C  0.55887970  0.16338308  0.41934716    -0.30800
C232        C  0.45333192  0.09072286  0.37672800    -0.31100
N233        N  0.43026246  0.09020743  0.40190012     0.13900
H234        H  0.45366425  0.07114577  0.35248583     0.16500
C235        C  0.44442883  0.11092585  0.43436538    -0.31100
H236        H  0.43121702  0.11683306  0.45992061     0.16500
H237        H  0.57594220  0.16087647  0.44809789     0.16500
H238        H  0.39466883  0.18799186  0.34958645     0.16600
H239        H  0.54051418  0.14894298  0.32371732     0.16500
O240        O  0.45584594  0.28757211  0.29986352    -0.80500
O241        O  0.29800236  0.29341814  0.31466142    -0.65200
O242        O  0.39259191  0.30555881  0.29930367    -1.11800
C243        C  0.40082324  0.06613528  0.39092014     1.06400
O244        O  0.29072825  0.02495348  0.30976834    -0.78400
O245        O  0.34782911  0.05207790  0.28368021    -0.66000
Ni246      Ni  0.41627902  0.26078735  0.31114298     1.34900
C247        C  0.37788278  0.06516735  0.28170966     0.85100
O248        O  0.34651304  0.24735514  0.27309224    -0.78900
O249        O  0.40156181  0.24634783  0.25766718    -0.89200
C250        C  0.27824420  0.32456713  0.30961317     0.84700
O251        O  0.42244086  0.27505069  0.36521242    -0.67400
O252        O  0.37344684  0.07815965  0.36571794    -0.86700
C253        C  0.39730206  0.25800831  0.37737035     0.85500
C254        C  0.37213193  0.23000930  0.25721638     1.07100
H255        H  0.35076544  0.32739376  0.37203246     0.38900
O256        O  0.35462402  0.00235364  0.34580236    -1.09400
O257        O  0.40320682  0.05059174  0.30754221    -0.66000
Ni258      Ni  0.40311452  0.00401260  0.34390862     1.26300
O259        O  0.36558377  0.26070874  0.35603582    -0.66200
O260        O  0.40947664  0.03131758  0.39236897    -0.78500
C261        C  0.46585383  0.31957666  0.31519993     0.84900
O262        O  0.45257290  0.00223818  0.34319017    -0.65700
Ni263      Ni  0.33235951  0.04997199  0.33561194     1.27400
Ni264      Ni  0.34751547  0.29461156  0.30830906     1.26100
H265        H  0.39340271  0.31694082  0.27337459     0.39500
C266        C  0.37898705  0.10668162  0.26213710     0.30400
C267        C  0.37370663  0.18565874  0.25290905     0.30400
C268        C  0.40674588  0.12975964  0.28837756    -0.05800
C269        C  0.38620824  0.12227684  0.21964276    -0.06600
C270        C  0.34262514  0.12701473  0.26547414    -0.06500
C271        C  0.40457458  0.16908949  0.28372616    -0.05800
C272        C  0.38123666  0.16369875  0.21475658    -0.06600
C273        C  0.34094963  0.16651496  0.26265654    -0.06500
C274        C  0.43871871  0.18167586  0.29748135    -0.31800
N275        N  0.45966496  0.15275521  0.31586994     0.14700
C276        C  0.44239963  0.12145218  0.30063489    -0.31900
H277        H  0.45575310  0.09443244  0.29596287     0.16600
C278        C  0.40464556  0.17590315  0.19049148    -0.30800
N279        N  0.42577980  0.14648841  0.18171416     0.13400
C280        C  0.41588487  0.11450453  0.20023007    -0.30800
C281        C  0.30560332  0.17761701  0.25523862    -0.31100
N282        N  0.28519025  0.14650884  0.25427341     0.13900
H283        H  0.29513185  0.20650468  0.24892887     0.16500
C284        C  0.30715652  0.11529522  0.25842769    -0.31100
H285        H  0.29747570  0.08656530  0.25493125     0.16500
H286        H  0.43277855  0.08899309  0.20568895     0.16500
H287        H  0.44664716  0.21098075  0.29984241     0.16600
H288        H  0.41137052  0.20555328  0.18755892     0.16500
C289        C  0.54393364  0.36936436  0.29096210    -0.25900
C290        C  0.53746074  0.36161846  0.24976740    -0.14000
C291        C  0.50283114  0.35689577  0.23006507     0.36600
C292        C  0.47811545  0.34564218  0.25315878    -0.25400
C293        C  0.48819403  0.34174066  0.29474872    -0.14600
C294        C  0.51929728  0.35791033  0.31451816     0.37700
N295        N  0.52714608  0.35885179  0.35756486    -0.88900
H296        H  0.57060199  0.37579052  0.30526917     0.18800
H297        H  0.45230776  0.33662062  0.23849266     0.18800
N298        N  0.49410520  0.35647011  0.18710318    -0.87900
H299        H  0.55141705  0.37185034  0.36681568     0.36200
H300        H  0.53019865  0.33055287  0.36790372     0.41300
H301        H  0.51564509  0.36556112  0.17424150     0.40900
H302        H  0.47376375  0.37706986  0.17898656     0.35800
C303        C  0.50159579  0.13958685  0.01065348    -0.25900
C304        C  0.50370703  0.17162373  0.48594924    -0.14000
C305        C  0.51658834  0.20585318  0.00545129     0.36600
C306        C  0.52625495  0.20651152  0.04779255    -0.25400
C307        C  0.52375973  0.17414324  0.07210096    -0.14600
C308        C  0.50912395  0.14067772  0.05246287     0.37700
N309        N  0.50177932  0.10632309  0.07301588    -0.88900
H310        H  0.49354937  0.11226761  0.99802585     0.18800
H311        H  0.53510549  0.23313423  0.06161236     0.18800
N312        N  0.52043840  0.24055385  0.98387052    -0.87900
H313        H  0.47494441  0.10053692  0.06396572     0.36200
H314        H  0.50419717  0.10935754  0.10385175     0.41300
H315        H  0.51315113  0.23740354  0.45305247     0.40900
H316        H  0.54743481  0.24676615  0.98855176     0.35800
C317        C  0.97853154  0.17808825  0.25984916    -0.25900
C318        C  0.99106507  0.17306688  0.30099122    -0.14000
C319        C  0.01976954  0.19448003  0.32002562     0.36600
C320        C  0.03937082  0.21385840  0.29554187    -0.25400
C321        C  0.03321066  0.20632703  0.25438441    -0.14600
C322        C  0.99954492  0.19610445  0.23603940     0.37700
N323        N  0.98974810  0.19815706  0.19317260    -0.88900
H324        H  0.95384300  0.16568571  0.24604109     0.18800
H325        H  0.06453370  0.22538487  0.30908430     0.18800
N326        N  0.03230260  0.19368541  0.36248909    -0.87900
H327        H  0.96398434  0.18845305  0.18459757     0.36200
H328        H  0.00665778  0.17949467  0.18023482     0.41300
H329        H  0.01759147  0.17587936  0.37784860     0.40900
H330        H  0.02949144  0.22147040  0.37336410     0.35800
C331        C  0.03848680  0.34805761  0.01045346    -0.25900
C332        C  0.00389747  0.00435580  0.99379807    -0.14000
C333        C  0.97880380  0.00346926  0.02107037     0.36600
C334        C  0.99062078  0.00779212  0.06216014    -0.25400
C335        C  0.02673324  0.00725348  0.07899603    -0.14600
C336        C  0.05110869  0.34642910  0.05172038     0.37700
N337        N  0.08847791  0.35236748  0.06350212    -0.88900
H338        H  0.05654088  0.35827130  0.99185678     0.18800
H339        H  0.97057903  0.01337558  0.08050458     0.18800
N340        N  0.94108455  0.99994213  0.50967089    -0.87900
H341        H  0.10240868  0.33069233  0.05054121     0.36200
H342        H  0.09663877  0.35011670  0.09413319     0.41300
H343        H  0.93313468  0.99653501  0.47923199     0.40900
H344        H  0.92857439  0.02526483  0.01754122     0.35800
C345        C  0.99515719  0.99626460  0.94821623     0.30400
C346        C  0.97730778  0.31643399  0.86829897     0.30400
C347        C  0.96555074  0.02270680  0.92627455    -0.05800
C348        C  0.02584022  0.00097326  0.92171674    -0.06600
C349        C  0.98114087  0.28818292  0.93634428    -0.06500
C350        C  0.95353928  0.01145458  0.88814773    -0.05800
C351        C  0.01493728  0.33025613  0.87989263    -0.06600
C352        C  0.97907443  0.28048524  0.89488291    -0.06500
C353        C  0.91810896  0.02245926  0.88152875    -0.31800
N354        N  0.91238851  0.05192048  0.90566555     0.14700
C355        C  0.94140297  0.05090696  0.93514770    -0.31900
H356        H  0.94446955  0.06912410  0.96134071     0.16600
C357        C  0.04451917  0.32072901  0.86255190    -0.30800
N358        N  0.07331518  0.31844110  0.89142091     0.13400
C359        C  0.06250400  0.32465899  0.92732085    -0.30800
C360        C  0.95797810  0.25080108  0.88626920    -0.31100
N361        N  0.93691396  0.24749290  0.91330879     0.13900
H362        H  0.95729343  0.23241661  0.86099145     0.16500
C363        C  0.95162565  0.26778854  0.94592111    -0.31100
H364        H  0.94099541  0.26851123  0.97368038     0.16500
H365        H  0.08000244  0.31931883  0.95529358     0.16500
H366        H  0.89822834  0.01391791  0.85730466     0.16600
H367        H  0.04467614  0.31348638  0.83140807     0.16500
O368        O  0.96127742  0.11657800  0.80541627    -0.80500
O369        O  0.80247832  0.11973278  0.81986819    -0.65200
O370        O  0.89744842  0.13367042  0.80555427    -1.11800
C371        C  0.90720906  0.22345249  0.90251933     1.06400
O372        O  0.79467803  0.18445929  0.82426990    -0.78400
O373        O  0.84975939  0.21596599  0.79719623    -0.66000
Ni374      Ni  0.92181550  0.08877389  0.81605061     1.34900
C375        C  0.88013872  0.22749412  0.79359252     0.85100
O376        O  0.85194962  0.07617083  0.77720474    -0.78900
O377        O  0.90740818  0.07438585  0.76259414    -0.89200
C378        C  0.78242103  0.15069290  0.81805616     0.84700
O379        O  0.92723029  0.10223722  0.87003634    -0.67400
O380        O  0.87893063  0.23627921  0.87930868    -0.86700
C381        C  0.90184999  0.08524290  0.88178819     0.85500
C382        C  0.87790675  0.05814521  0.76241490     1.07100
H383        H  0.85660381  0.15102903  0.87995537     0.38900
O384        O  0.85977399  0.16115957  0.85418344    -1.09400
O385        O  0.90636473  0.21152585  0.81717395    -0.66000
Ni386      Ni  0.90807899  0.16370876  0.85170860     1.26300
O387        O  0.87039666  0.08710704  0.86004627    -0.66200
O388        O  0.91558924  0.18868290  0.90173414    -0.78500
C389        C  0.97080084  0.14839890  0.82171583     0.84900
O390        O  0.95729670  0.16302647  0.85021365    -0.65700
Ni391      Ni  0.83701073  0.20886985  0.84971323     1.27400
Ni392      Ni  0.85234560  0.12214124  0.81401723     1.26100
H393        H  0.89834609  0.14600594  0.78012967     0.39500
C394        C  0.88191753  0.26832016  0.77323440     0.30400
C395        C  0.87920448  0.01345774  0.76033527     0.30400
C396        C  0.91077474  0.29128852  0.79781322    -0.05800
C397        C  0.88844922  0.28109114  0.72995329    -0.06600
C398        C  0.84652666  0.29030209  0.77671645    -0.06500
C399        C  0.90983657  0.99711949  0.79147005    -0.05800
C400        C  0.88525271  0.98907961  0.72307774    -0.06600
C401        C  0.84617683  0.99639922  0.77180532    -0.06500
C402        C  0.94421634  0.00893444  0.80505261    -0.31800
N403        N  0.96428024  0.31296418  0.82422229     0.14700
C404        C  0.94616285  0.28203473  0.80973471    -0.31900
H405        H  0.95886629  0.25481681  0.80444984     0.16600
C406        C  0.90930068  0.99806622  0.69829503    -0.30800
N407        N  0.92864237  0.29995653  0.69089906     0.13400
C408        C  0.91709779  0.26985862  0.71059331    -0.29600
C409        C  0.81144717  0.00818982  0.76056031    -0.31100
N410        N  0.79000493  0.31141205  0.75946351     0.13900
H411        H  0.80235069  0.03664877  0.75023906     0.16500
C412        C  0.81088625  0.27965624  0.76728432    -0.31100
H413        H  0.80074166  0.25112230  0.76341483     0.16500
H414        H  0.93249434  0.24347361  0.71705096     0.16500
H415        H  0.95274546  0.03808623  0.80666311     0.16600
H416        H  0.91775990  0.02686833  0.69395848     0.16500
C417        C  0.05647413  0.33272739  0.70549378     0.30400
C418        C  0.03731053  0.00358137  0.62499199     0.30400
C419        C  0.07721353  0.30648021  0.68127793    -0.05800
C420        C  0.01809209  0.32491434  0.69132783    -0.06600
C421        C  0.06427604  0.03705502  0.68728546    -0.06500
C422        C  0.06628389  0.30478433  0.64032455    -0.05800
C423        C  0.00711401  0.32592714  0.65025892    -0.06600
C424        C  0.05279549  0.04184582  0.64603833    -0.06500
C425        C  0.09486406  0.28545268  0.62632402    -0.31800
N426        N  0.12379417  0.28293878  0.65622053     0.14700
C427        C  0.11338370  0.30179723  0.68661560    -0.31900
H428        H  0.13185690  0.31009237  0.71235440     0.16600
C429        C  0.97249899  0.31133020  0.64568594    -0.30800
N430        N  0.96362039  0.30325223  0.68233323     0.13400
C431        C  0.99159295  0.31152450  0.71040653    -0.30800
C432        C  0.07618720  0.06947796  0.63507737    -0.31100
N433        N  0.10406668  0.07464995  0.66535318     0.13900
H434        H  0.07413139  0.08283242  0.60588376     0.16500
C435        C  0.09720520  0.05288788  0.69507292    -0.31100
H436        H  0.11688538  0.04841455  0.72124378     0.16500
H437        H  0.99229810  0.30869728  0.74244699     0.16500
H438        H  0.09535738  0.27616985  0.59583781     0.16600
H439        H  0.95488849  0.30553649  0.61819868     0.16500
O440        O  0.06917871  0.15021686  0.75946599    -0.80500
O441        O  0.22593590  0.12199513  0.74248934    -0.65200
O442        O  0.13381477  0.15322333  0.76034824    -1.11800
C443        C  0.14282413  0.24897264  0.67217230     1.06400
O444        O  0.23552667  0.18121319  0.76532379    -0.78400
O445        O  0.18373764  0.22552861  0.78205814    -0.66000
Ni446      Ni  0.10480777  0.11422922  0.74709132     1.34900
C447        C  0.15410930  0.24274675  0.78037920     0.85100
O448        O  0.17433422  0.08740077  0.78450983    -0.78900
O449        O  0.11911759  0.09230166  0.79961496    -0.89200
C450        C  0.24734174  0.14951077  0.75324993     0.84700
O451        O  0.10017588  0.13233074  0.69401329    -0.67400
O452        O  0.17182762  0.25245238  0.69788647    -0.86700
C453        C  0.12126780  0.10859532  0.68128345     0.85500
C454        C  0.14894809  0.07336692  0.80157212     1.07100
H455        H  0.17899316  0.16852256  0.68903677     0.38900
O456        O  0.17510895  0.17619761  0.71556500    -1.09400
O457        O  0.13012536  0.23238546  0.75228590    -0.66000
Ni458      Ni  0.12713967  0.18767228  0.71634600     1.26300
O459        O  0.15367448  0.10475829  0.70120994    -0.66200
O460        O  0.12476661  0.21910711  0.67071468    -0.78500
C461        C  0.06145146  0.18309954  0.74245681     0.84900
O462        O  0.07823609  0.19709385  0.71684049    -0.65700
Ni463      Ni  0.20388453  0.21633292  0.73310583     1.27400
Ni464      Ni  0.17712375  0.13345712  0.75018162     1.26100
H465        H  0.13445899  0.16417433  0.78675767     0.39500
C466        C  0.15167519  0.28327484  0.80042598     0.30400
C467        C  0.15046304  0.02890447  0.81011276     0.30400
C468        C  0.11900685  0.30558504  0.78009734    -0.05800
C469        C  0.14941777  0.29718705  0.84471243    -0.06600
C470        C  0.18392152  0.30448569  0.79077282    -0.06500
C471        C  0.11831599  0.01132100  0.78476135    -0.05800
C472        C  0.14973729  0.00578493  0.84983104    -0.06600
C473        C  0.18303759  0.01056811  0.79515557    -0.06500
C474        C  0.08383588  0.02364715  0.77080085    -0.31800
N475        N  0.06716386  0.32831870  0.74932816     0.14700
C476        C  0.08536113  0.29595767  0.76301318    -0.31900
H477        H  0.07714557  0.26785330  0.75315731     0.16600
C478        C  0.12551261  0.01455988  0.87527261    -0.30800
N479        N  0.10892249  0.31615909  0.88424894     0.13400
C480        C  0.12316805  0.28571214  0.86649735    -0.30800
C481        C  0.21813890  0.02110603  0.80300826    -0.31100
N482        N  0.24013239  0.32341872  0.80208466     0.13900
H483        H  0.22723651  0.04909820  0.81291057     0.16500
C484        C  0.21984232  0.29267532  0.79614902    -0.31100
H485        H  0.23112614  0.26393884  0.79963020     0.16500
H486        H  0.10991483  0.25874288  0.86172951     0.16500
H487        H  0.07390928  0.05298953  0.76866414     0.16600
H488        H  0.11428719  0.04312518  0.87809135     0.16500
C489        C  0.53714838  0.17443807  0.61781622     0.30400
C490        C  0.55609722  0.16493637  0.69826324     0.30400
C491        C  0.56198512  0.20621156  0.63849810    -0.05800
C492        C  0.50581387  0.17476317  0.64404492    -0.06600
C493        C  0.56034850  0.13748071  0.63171356    -0.06500
C494        C  0.57420562  0.19732739  0.67857127    -0.05800
C495        C  0.51669528  0.17146294  0.68562138    -0.06600
C496        C  0.56298297  0.13048570  0.67262296    -0.06500
C497        C  0.61010935  0.20458211  0.68386043    -0.31800
N498        N  0.61766123  0.23022849  0.65740617     0.14700
C499        C  0.58894078  0.22886034  0.62733645    -0.31900
H500        H  0.58905839  0.24121959  0.59805504     0.16600
C501        C  0.48899928  0.15737552  0.70254255    -0.30800
N502        N  0.46057566  0.15315597  0.67366336     0.13400
C503        C  0.47007273  0.16389343  0.63790677    -0.30800
C504        C  0.58947526  0.10557104  0.68255259    -0.31100
N505        N  0.61045482  0.10257470  0.65522329     0.13900
H506        H  0.58771214  0.08404561  0.70398086     0.16500
C507        C  0.59239279  0.12069594  0.62183842    -0.31100
H508        H  0.60204211  0.12301807  0.59350852     0.16500
H509        H  0.45304030  0.16173540  0.60920804     0.16500
H510        H  0.63019277  0.19406504  0.70751488     0.16600
H511        H  0.48995628  0.14925432  0.73363315     0.16500
O512        O  0.57291767  0.30546462  0.75447941    -0.80500
O513        O  0.73123786  0.28739502  0.74360264    -0.65200
O514        O  0.63703476  0.31267013  0.75627435    -1.11800
C515        C  0.63791079  0.07377959  0.66499571     1.06400
O516        O  0.74046655  0.01738397  0.75354768    -0.78400
O517        O  0.68554871  0.05584946  0.77445319    -0.66000
Ni518      Ni  0.61059792  0.27119300  0.74463419     1.34900
C519        C  0.65513253  0.07087040  0.77471647     0.85100
O520        O  0.68026941  0.25005290  0.78430376    -0.78900
O521        O  0.62469101  0.25421211  0.79831820    -0.89200
C522        C  0.75202700  0.31605777  0.75111580     0.84700
O523        O  0.60600725  0.28509956  0.69047265    -0.67400
O524        O  0.66557015  0.08158511  0.69103771    -0.86700
C525        C  0.63019972  0.26415468  0.67909066     0.85500
C526        C  0.65427249  0.23533742  0.79985503     1.07100
H527        H  0.68235576  0.32811932  0.68571816     0.38900
O528        O  0.67798828  0.00379613  0.71163290    -1.09400
O529        O  0.63072491  0.05793735  0.74809280    -0.66000
Ni530      Ni  0.62971536  0.01198355  0.71127337     1.26300
O531        O  0.66195323  0.26335219  0.70078139    -0.66200
O532        O  0.62670567  0.04032009  0.66291648    -0.78500
C533        C  0.56445004  0.33764588  0.73658090     0.84900
O534        O  0.58027526  0.01743579  0.70975273    -0.65700
Ni535      Ni  0.70291217  0.04810897  0.72384695     1.27400
Ni536      Ni  0.68171378  0.29572088  0.74865248     1.26100
H537        H  0.63646494  0.32460129  0.78204221     0.39500
C538        C  0.65225624  0.11220268  0.79445286     0.30400
C539        C  0.65393213  0.19091508  0.80488863     0.30400
C540        C  0.62250337  0.13627614  0.76975772    -0.05800
C541        C  0.64571137  0.12670038  0.83757332    -0.06600
C542        C  0.68742319  0.13197858  0.79018227    -0.06500
C543        C  0.62343739  0.17547990  0.77464545    -0.05800
C544        C  0.64815482  0.16815273  0.84304227    -0.06600
C545        C  0.68750015  0.17143895  0.79408661    -0.06500
C546        C  0.58904277  0.18953376  0.76123558    -0.31800
N547        N  0.56892885  0.16148338  0.74263573     0.14700
C548        C  0.58671453  0.12949856  0.75862855    -0.31900
H549        H  0.57455401  0.10208789  0.75978648     0.16600
C550        C  0.62366230  0.17929288  0.86727686    -0.30800
N551        N  0.60479799  0.14917188  0.87580701     0.13400
C552        C  0.61713363  0.11774909  0.85735971    -0.30800
C553        C  0.72249229  0.18118798  0.80518771    -0.31100
N554        N  0.74422750  0.14963070  0.80719072     0.13900
H555        H  0.73137086  0.20930003  0.81490637     0.16500
C556        C  0.72322807  0.11926034  0.79986797    -0.31100
H557        H  0.73342198  0.09019878  0.80505197     0.16500
H558        H  0.60220550  0.09190303  0.85194937     0.16500
H559        H  0.58071679  0.21933085  0.75852521     0.16600
H560        H  0.61457910  0.20869052  0.87028322     0.16500
C561        C  0.49229887  0.16744994  0.93990311     0.30400
C562        C  0.47329226  0.15598260  0.85990262     0.30400
C563        C  0.46180300  0.19420742  0.91968996    -0.05800
C564        C  0.52237812  0.17283966  0.91322884    -0.06600
C565        C  0.47650059  0.12731775  0.92648407    -0.06500
C566        C  0.44996947  0.18470967  0.88062402    -0.05800
C567        C  0.51124497  0.16898101  0.87139725    -0.06600
C568        C  0.47545701  0.11939608  0.88551155    -0.06500
C569        C  0.41441558  0.19560117  0.87434755    -0.31800
N570        N  0.40807520  0.22356077  0.89998710     0.14700
C571        C  0.43668654  0.22070837  0.93021445    -0.31900
H572        H  0.43904791  0.23682880  0.95784484     0.16600
C573        C  0.54063593  0.15730134  0.85462903    -0.30800
N574        N  0.56943920  0.15454837  0.88354050     0.13400
C575        C  0.55889154  0.16337807  0.91936192    -0.30800
C576        C  0.45332997  0.09073732  0.87672860    -0.31100
N577        N  0.43026662  0.09021658  0.90190776     0.13900
H578        H  0.45366199  0.07115960  0.85248738     0.16500
C579        C  0.44443406  0.11093760  0.93437049    -0.31100
H580        H  0.43122640  0.11684226  0.95992938     0.16500
H581        H  0.57595012  0.16087818  0.94811583     0.16500
H582        H  0.39468263  0.18799532  0.84959019     0.16600
H583        H  0.54053852  0.14892005  0.82373451     0.16500
O584        O  0.45584054  0.28761329  0.79983709    -0.80500
O585        O  0.29800178  0.29342029  0.81466087    -0.65200
O586        O  0.39258967  0.30557207  0.79929954    -1.11800
C587        C  0.40082899  0.06614152  0.89093244     1.06400
O588        O  0.29073565  0.02496127  0.80977555    -0.78400
O589        O  0.34783585  0.05208813  0.78369342    -0.66000
Ni590      Ni  0.41628915  0.26080498  0.81112893     1.34900
C591        C  0.37788840  0.06518103  0.78172607     0.85100
O592        O  0.34651961  0.24736689  0.77308876    -0.78900
O593        O  0.40156658  0.24636393  0.75765604    -0.89200
C594        C  0.27824260  0.32456903  0.80960722     0.84700
O595        O  0.42245177  0.27506196  0.86520028    -0.67400
O596        O  0.37344981  0.07816557  0.86573426    -0.86700
C597        C  0.39731416  0.25801903  0.87736166     0.85500
C598        C  0.37213930  0.23002175  0.75721416     1.07100
H599        H  0.35075864  0.32739878  0.87202952     0.38900
O600        O  0.35462966  0.00236211  0.84581226    -1.09400
O601        O  0.40321192  0.05060536  0.80755708    -0.66000
Ni602      Ni  0.40311927  0.00402253  0.84391513     1.26300
O603        O  0.36559367  0.26071746  0.85603111    -0.66200
O604        O  0.40948507  0.03132403  0.89237810    -0.78500
C605        C  0.46584315  0.31961460  0.81518650     0.84900
O606        O  0.45257571  0.00224966  0.84319131    -0.65700
Ni607      Ni  0.33236429  0.04997934  0.83562407     1.27400
Ni608      Ni  0.34751594  0.29461900  0.80830638     1.26100
H609        H  0.39339622  0.31695895  0.77337174     0.39500
C610        C  0.37899237  0.10669564  0.76215856     0.30400
C611        C  0.37371651  0.18567070  0.75291957     0.30400
C612        C  0.40675922  0.12977349  0.78838837    -0.05800
C613        C  0.38620413  0.12228207  0.71965916    -0.06600
C614        C  0.34263643  0.12703331  0.76550937    -0.06500
C615        C  0.40458983  0.16910356  0.78373143    -0.05800
C616        C  0.38123565  0.16370363  0.71476707    -0.06600
C617        C  0.34096321  0.16653244  0.76268489    -0.06500
C618        C  0.43873538  0.18168875  0.79747886    -0.31800
N619        N  0.45968221  0.15276722  0.81586753     0.14700
C620        C  0.44241413  0.12146496  0.80063508    -0.31900
H621        H  0.45576482  0.09444313  0.79596516     0.16600
C622        C  0.40464602  0.17589969  0.69049940    -0.30800
N623        N  0.42577715  0.14648039  0.68172645     0.13400
C624        C  0.41587838  0.11450107  0.70024575    -0.30800
C625        C  0.30561744  0.17763986  0.75529578    -0.31100
N626        N  0.28520463  0.14653385  0.75434887     0.13900
H627        H  0.29514412  0.20652664  0.74898559     0.16500
C628        C  0.30716699  0.11531800  0.75849103    -0.31100
H629        H  0.29748055  0.08659027  0.75500104     0.16500
H630        H  0.43276948  0.08898791  0.70570847     0.16500
H631        H  0.44666338  0.21099442  0.79983562     0.16600
H632        H  0.41137526  0.20554800  0.68756321     0.16500
C633        C  0.54393589  0.36939161  0.79098544    -0.25900
C634        C  0.53746819  0.36165291  0.74978949    -0.14000
C635        C  0.50283792  0.35695537  0.73007553     0.36600
C636        C  0.47810859  0.34571592  0.75315916    -0.25400
C637        C  0.48818013  0.34179656  0.79474842    -0.14600
C638        C  0.51928878  0.35794516  0.81453032     0.37700
N639        N  0.52713363  0.35886507  0.85757787    -0.88900
H640        H  0.57060611  0.37579938  0.80530120     0.18800
H641        H  0.45229862  0.33670883  0.73848489     0.18800
N642        N  0.49412279  0.35653404  0.68711243    -0.87900
H643        H  0.55140959  0.37184994  0.86683924     0.36200
H644        H  0.53017414  0.33056087  0.86790182     0.41300
H645        H  0.51567196  0.36561162  0.67425913     0.40900
H646        H  0.47379327  0.37714561  0.67899004     0.35800
C647        C  0.50157987  0.13958213  0.51066173    -0.25900
C648        C  0.50371482  0.17163291  0.98594520    -0.14000
C649        C  0.51658926  0.20584157  0.50545387     0.36600
C650        C  0.52625577  0.20650258  0.54779602    -0.25400
C651        C  0.52375666  0.17413794  0.57210904    -0.14600
C652        C  0.50911617  0.14067327  0.55247224     0.37700
N653        N  0.50177516  0.10631866  0.57302733    -0.88900
H654        H  0.49352368  0.11226517  0.49803631     0.18800
H655        H  0.53511024  0.23312508  0.56161237     0.18800
N656        N  0.52045073  0.24053720  0.48387009    -0.87900
H657        H  0.47493720  0.10053826  0.56399110     0.36200
H658        H  0.50421046  0.10934742  0.60386506     0.41300
H659        H  0.51315049  0.23741755  0.95305173     0.40900
H660        H  0.54745080  0.24673343  0.48854240     0.35800
C661        C  0.97853715  0.17809394  0.75984170    -0.25900
C662        C  0.99106803  0.17307026  0.80098402    -0.14000
C663        C  0.01977116  0.19448297  0.82002260     0.36600
C664        C  0.03937429  0.21386269  0.79554195    -0.25400
C665        C  0.03321953  0.20632816  0.75438485    -0.14600
C666        C  0.99955514  0.19610644  0.73603474     0.37700
N667        N  0.98976762  0.19814752  0.69316632    -0.88900
H668        H  0.95384996  0.16569080  0.74603040     0.18800
H669        H  0.06453625  0.22538908  0.80908769     0.18800
N670        N  0.03230289  0.19368419  0.86248639    -0.87900
H671        H  0.96400281  0.18844772  0.68458788     0.36200
H672        H  0.00667714  0.17947570  0.68023969     0.41300
H673        H  0.01759025  0.17587799  0.87784379     0.40900
H674        H  0.02949381  0.22146840  0.87336419     0.35800
C675        C  0.03851504  0.34803879  0.51046058    -0.25900
C676        C  0.00392859  0.00435670  0.49381451    -0.14000
C677        C  0.97884070  0.00348647  0.52109377     0.36600
C678        C  0.99066665  0.00781673  0.56217959    -0.25400
C679        C  0.02678138  0.00725807  0.57900744    -0.14600
C680        C  0.05113877  0.34641067  0.55172669     0.37700
N681        N  0.08851057  0.35233486  0.56350656    -0.88900
H682        H  0.05657145  0.35824265  0.49186206     0.18800
H683        H  0.97063072  0.01342182  0.58052773     0.18800
N684        N  0.94104974  0.99991574  0.00963647    -0.87900
H685        H  0.10243391  0.33064892  0.55055222     0.36200
H686        H  0.09667021  0.35009301  0.59413857     0.41300
H687        H  0.93310682  0.99651958  0.97919493     0.40900
H688        H  0.92861719  0.02529835  0.51756983     0.35800
C689        C  0.99517947  0.32958560  0.44822619     0.30400
C690        C  0.97729856  0.64976802  0.36832686     0.30400
C691        C  0.96558063  0.35604075  0.42628616    -0.05800
C692        C  0.02586015  0.33427547  0.42171860    -0.06600
C693        C  0.98114400  0.62151593  0.43637193    -0.06500
C694        C  0.95356027  0.34478755  0.38816157    -0.05800
C695        C  0.01492826  0.66359086  0.37990918    -0.06600
C696        C  0.97907171  0.61381851  0.39491090    -0.06500
C697        C  0.91812927  0.35578793  0.38155524    -0.31800
N698        N  0.91241519  0.38525389  0.40568806     0.14700
C699        C  0.94143650  0.38424447  0.43516197    -0.31900
H700        H  0.94450716  0.40246224  0.46135450     0.16600
C701        C  0.04450396  0.65406156  0.36255825    -0.30800
N702        N  0.07330499  0.65176862  0.39141985     0.13400
C703        C  0.06250275  0.65798685  0.42732455    -0.30800
C704        C  0.95798296  0.58412699  0.38630150    -0.31100
N705        N  0.93692452  0.58081220  0.41334641     0.13900
H706        H  0.95729304  0.56574726  0.36101912     0.16500
C707        C  0.95163345  0.60111617  0.44595474    -0.31100
H708        H  0.94100414  0.60184140  0.47371468     0.16500
H709        H  0.08000637  0.65264305  0.45529292     0.16500
H710        H  0.89824344  0.34723987  0.35733914     0.16600
H711        H  0.04465303  0.64682032  0.33141258     0.16500
O712        O  0.96127334  0.44991602  0.30540944    -0.80500
O713        O  0.80248279  0.45304662  0.31990437    -0.65200
O714        O  0.89744586  0.46700001  0.30556865    -1.11800
C715        C  0.90722100  0.55676814  0.40255841     1.06400
O716        O  0.79467670  0.51776963  0.32434060    -0.78400
O717        O  0.84973935  0.54931765  0.29725724    -0.66000
Ni718      Ni  0.92181986  0.42210458  0.31605671     1.34900
C719        C  0.88011941  0.56083599  0.29363628     0.85100
O720        O  0.85194776  0.40949891  0.27722652    -0.78900
O721        O  0.90740234  0.40771266  0.26260357    -0.89200
C722        C  0.78242250  0.48400386  0.31810402     0.84700
O723        O  0.92724634  0.43556600  0.37004327    -0.67400
O724        O  0.87893352  0.56959617  0.37936497    -0.86700
C725        C  0.90187036  0.41857062  0.38180354     0.85500
C726        C  0.87790196  0.39147193  0.26243348     1.07100
H727        H  0.85662244  0.48433925  0.37998757     0.38900
O728        O  0.85978251  0.49447759  0.35421569    -1.09400
O729        O  0.90635293  0.54485702  0.31719784    -0.66000
Ni730      Ni  0.90808346  0.49703464  0.35172546     1.26300
O731        O  0.87041405  0.42042843  0.36006692    -0.66200
O732        O  0.91560570  0.52200047  0.40175617    -0.78500
C733        C  0.97079834  0.48173551  0.32171147     0.84900
O734        O  0.95729751  0.49636128  0.35021255    -0.65700
Ni735      Ni  0.83701122  0.54218451  0.34977789     1.27400
Ni736      Ni  0.85234806  0.45546432  0.31404370     1.26100
H737        H  0.89833717  0.47933843  0.28014396     0.39500
C738        C  0.88190086  0.60166044  0.27327338     0.30400
C739        C  0.87919726  0.34678440  0.26036006     0.30400
C740        C  0.91075626  0.62462812  0.29785432    -0.05800
C741        C  0.88843702  0.61442991  0.22999304    -0.06600
C742        C  0.84651168  0.62364458  0.27675088    -0.06500
C743        C  0.90983176  0.33044498  0.29149057    -0.05800
C744        C  0.88523380  0.32240320  0.22310103    -0.06600
C745        C  0.84617168  0.32973192  0.27184062    -0.06500
C746        C  0.94421282  0.34225729  0.30506826    -0.31800
N747        N  0.96426487  0.64629891  0.32425318     0.14700
C748        C  0.94614340  0.61537125  0.30977097    -0.31900
H749        H  0.95884468  0.58815462  0.30447628     0.16600
C750        C  0.90927488  0.33138712  0.19830952    -0.30800
N751        N  0.92862928  0.63328767  0.19093326     0.13400
C752        C  0.91708319  0.60319272  0.21063119    -0.29600
C753        C  0.81144393  0.34152418  0.26058883    -0.31100
N754        N  0.78999504  0.64475412  0.25947060     0.13900
H755        H  0.80235089  0.36998146  0.25025821     0.16500
C756        C  0.81087365  0.61299843  0.26730192    -0.31100
H757        H  0.80073138  0.58446392  0.26342265     0.16500
H758        H  0.93247530  0.57680475  0.21708619     0.16500
H759        H  0.95274299  0.37140884  0.30667721     0.16600
H760        H  0.91773272  0.36018872  0.19396739     0.16500
C761        C  0.05646068  0.66605069  0.20549022     0.30400
C762        C  0.03726877  0.33691265  0.12498209     0.30400
C763        C  0.07720858  0.63981943  0.18126822    -0.05800
C764        C  0.01808227  0.65821795  0.19132954    -0.06600
C765        C  0.06422893  0.37039063  0.18727897    -0.06500
C766        C  0.06627543  0.63812561  0.14031570    -0.05800
C767        C  0.00709574  0.65923589  0.15026176    -0.06600
C768        C  0.05274371  0.37518084  0.14603069    -0.06500
C769        C  0.09485950  0.61880382  0.12631167    -0.31800
N770        N  0.12379191  0.61629105  0.15620692     0.14700
C771        C  0.11338035  0.63514917  0.18660186    -0.31900
H772        H  0.13185298  0.64344636  0.21234039     0.16600
C773        C  0.97247369  0.64465502  0.14570091    -0.30800
N774        N  0.96360409  0.63657467  0.18235277     0.13400
C775        C  0.99158628  0.64483490  0.21041768    -0.30800
C776        C  0.07612710  0.40282037  0.13506639    -0.31100
N777        N  0.10400741  0.40799696  0.16533916     0.13900
H778        H  0.07406568  0.41617595  0.10587277     0.16500
C779        C  0.09715047  0.38624045  0.19506526    -0.31100
H780        H  0.11683274  0.38177776  0.22123521     0.16500
H781        H  0.99229782  0.64201178  0.24245958     0.16500
H782        H  0.09535430  0.60952874  0.09582321     0.16600
H783        H  0.95484971  0.63887708  0.11821945     0.16500
O784        O  0.06916990  0.48355970  0.25945814    -0.80500
O785        O  0.22591511  0.45531353  0.24243067    -0.65200
O786        O  0.13380414  0.48655161  0.26032144    -1.11800
C787        C  0.14281425  0.58232065  0.17216240     1.06400
O788        O  0.23550988  0.51452285  0.26528829    -0.78400
O789        O  0.18373890  0.55885861  0.28204040    -0.66000
Ni790      Ni  0.10478713  0.44756721  0.24706263     1.34900
C791        C  0.15410940  0.57607354  0.28036970     0.85100
O792        O  0.17431650  0.42071791  0.28445736    -0.78900
O793        O  0.11910525  0.42562257  0.29957889    -0.89200
C794        C  0.24732384  0.48282473  0.25320234     0.84700
O795        O  0.10014749  0.46568380  0.19398910    -0.67400
O796        O  0.17182165  0.58579187  0.19787301    -0.86700
C797        C  0.12122579  0.44193920  0.18125089     0.85500
C798        C  0.14893478  0.40668621  0.30152898     1.07100
H799        H  0.17896833  0.50186192  0.18900046     0.38900
O800        O  0.17509048  0.50953060  0.21553267    -1.09400
O801        O  0.13012265  0.56571412  0.25227936    -0.66000
Ni802      Ni  0.12712553  0.52101188  0.21632814     1.26300
O803        O  0.15363749  0.43809379  0.20116331    -0.66200
O804        O  0.12474922  0.55246020  0.17070609    -0.78500
C805        C  0.06144466  0.51644618  0.24245644     0.84900
O806        O  0.07822517  0.53044090  0.21683663    -0.65700
Ni807      Ni  0.20387463  0.54965796  0.23308101     1.27400
Ni808      Ni  0.17710552  0.46678007  0.25013688     1.26100
H809        H  0.13445699  0.49749653  0.28673473     0.39500
C810        C  0.15167310  0.61660032  0.30041900     0.30400
C811        C  0.15045319  0.36222399  0.31007761     0.30400
C812        C  0.11900661  0.63890937  0.28008317    -0.05800
C813        C  0.14940702  0.63051338  0.34470380    -0.06600
C814        C  0.18392059  0.63781332  0.29077248    -0.06500
C815        C  0.11830594  0.34463887  0.28472991    -0.05800
C816        C  0.14973255  0.33910124  0.34979609    -0.06600
C817        C  0.18302827  0.34389083  0.29511776    -0.06500
C818        C  0.08381956  0.35696025  0.27079240    -0.31800
N819        N  0.06715770  0.66163963  0.24932374     0.14700
C820        C  0.08535995  0.62928002  0.26300280    -0.31900
H821        H  0.07714426  0.60117603  0.25314747     0.16600
C822        C  0.12551022  0.34786874  0.37524289    -0.30800
N823        N  0.10890934  0.64948664  0.38423754     0.13400
C824        C  0.12315407  0.61903936  0.36648526    -0.30800
C825        C  0.21812889  0.35443122  0.30297477    -0.31100
N826        N  0.24012896  0.65675347  0.30209212     0.13900
H827        H  0.22722319  0.38242294  0.31288319     0.16500
C828        C  0.21984210  0.62600704  0.29615423    -0.31100
H829        H  0.23112734  0.59727107  0.29963791     0.16500
H830        H  0.10990161  0.59206964  0.36171883     0.16500
H831        H  0.07388623  0.38630042  0.26867310     0.16600
H832        H  0.11428099  0.37643154  0.37806609     0.16500
C833        C  0.53714359  0.50777092  0.11780124     0.30400
C834        C  0.55609801  0.49826661  0.19824474     0.30400
C835        C  0.56198715  0.53953925  0.13847909    -0.05800
C836        C  0.50581128  0.50810363  0.14403306    -0.06600
C837        C  0.56033842  0.47080884  0.13169518    -0.06500
C838        C  0.57421130  0.53065297  0.17854981    -0.05800
C839        C  0.51669632  0.50480411  0.18560869    -0.06600
C840        C  0.56297205  0.46381197  0.17260383    -0.06500
C841        C  0.61011579  0.53790446  0.18383258    -0.31800
N842        N  0.61766420  0.56355408  0.15737906     0.14700
C843        C  0.58894082  0.56218740  0.12731295    -0.31900
H844        H  0.58905472  0.57454713  0.09803094     0.16600
C845        C  0.48899893  0.49072765  0.20253564    -0.30800
N846        N  0.46057193  0.48651150  0.17366011     0.13400
C847        C  0.47006778  0.49724079  0.13790003    -0.30800
C848        C  0.58945637  0.43888610  0.18253001    -0.31100
N849        N  0.61043619  0.43588885  0.15520120     0.13900
H850        H  0.58769588  0.41736461  0.20396412     0.16500
C851        C  0.59238003  0.45401857  0.12181851    -0.31100
H852        H  0.60203221  0.45634373  0.09349051     0.16500
H853        H  0.45303345  0.49508031  0.10920276     0.16500
H854        H  0.63020170  0.52738464  0.20748299     0.16600
H855        H  0.48995789  0.48260833  0.23362706     0.16500
O856        O  0.57291932  0.63877478  0.25446278    -0.80500
O857        O  0.73123448  0.62073221  0.24357637    -0.65200
O858        O  0.63703272  0.64599481  0.25625177    -1.11800
C859        C  0.63789763  0.40710034  0.16497643     1.06400
O860        O  0.74046309  0.35072221  0.25352289    -0.78400
O861        O  0.68554001  0.38917168  0.27443685    -0.66000
Ni862      Ni  0.61060318  0.60451422  0.24461000     1.34900
C863        C  0.65512354  0.40419130  0.27470082     0.85100
O864        O  0.68027516  0.58337700  0.28427603    -0.78900
O865        O  0.62469841  0.58753520  0.29829314    -0.89200
C866        C  0.75201940  0.64939804  0.25108986     0.84700
O867        O  0.60600833  0.61842402  0.19044837    -0.67400
O868        O  0.66555245  0.41491111  0.19102247    -0.86700
C869        C  0.63020117  0.59748006  0.17906526     0.85500
C870        C  0.65427897  0.56866053  0.29982845     1.07100
H871        H  0.68233908  0.66144760  0.18568544     0.38900
O872        O  0.67798686  0.33712089  0.21161533    -1.09400
O873        O  0.63071703  0.39125797  0.24807413    -0.66000
Ni874      Ni  0.62971284  0.34530238  0.21125326     1.26300
O875        O  0.66195451  0.59667842  0.20075562    -0.66200
O876        O  0.62670044  0.37363799  0.16289524    -0.78500
C877        C  0.56444658  0.67096005  0.23657625     0.84900
O878        O  0.58027219  0.35074785  0.20973108    -0.65700
Ni879      Ni  0.70290131  0.38144020  0.22382839     1.27400
Ni880      Ni  0.68171131  0.62904988  0.24862501     1.26100
H881        H  0.63646347  0.65792415  0.28202057     0.39500
C882        C  0.65224939  0.44552510  0.29443795     0.30400
C883        C  0.65393505  0.52423850  0.30486518     0.30400
C884        C  0.62250700  0.46960076  0.26973040    -0.05800
C885        C  0.64569038  0.46003112  0.33755217    -0.06600
C886        C  0.68742472  0.46529386  0.29018293    -0.06500
C887        C  0.62344599  0.50880545  0.27461374    -0.05800
C888        C  0.64814057  0.50148335  0.34301653    -0.06600
C889        C  0.68750530  0.50475516  0.29408005    -0.06500
C890        C  0.58905091  0.52286123  0.26121073    -0.31800
N891        N  0.56893248  0.49481306  0.24261543     0.14700
C892        C  0.58671676  0.46282743  0.25860613    -0.31900
H893        H  0.57455214  0.43541979  0.25977354     0.16600
C894        C  0.62364522  0.51263484  0.36724340    -0.30800
N895        N  0.60477437  0.48252031  0.37577661     0.13400
C896        C  0.61710435  0.45109181  0.35733215    -0.30800
C897        C  0.72249585  0.51450058  0.30519865    -0.31100
N898        N  0.74422941  0.48294072  0.30722146     0.13900
H899        H  0.73137230  0.54261434  0.31491378     0.16500
C900        C  0.72322746  0.45257166  0.29989177    -0.31100
H901        H  0.73341474  0.42350849  0.30508484     0.16500
H902        H  0.60217151  0.42524871  0.35192422     0.16500
H903        H  0.58072587  0.55265845  0.25850152     0.16600
H904        H  0.61456900  0.54203537  0.37024660     0.16500
C905        C  0.49228801  0.50077994  0.43991004     0.30400
C906        C  0.47327519  0.48931421  0.35991052     0.30400
C907        C  0.46178334  0.52752989  0.41970268    -0.05800
C908        C  0.52236277  0.50618188  0.41322889    -0.06600
C909        C  0.47649744  0.46064450  0.42648998    -0.06500
C910        C  0.44994719  0.51803249  0.38063726    -0.05800
C911        C  0.51122298  0.50232801  0.37139745    -0.06600
C912        C  0.47545643  0.45272420  0.38551730    -0.06500
C913        C  0.41439352  0.52892589  0.37436066    -0.31800
N914        N  0.40805338  0.55688186  0.40000503     0.14700
C915        C  0.43666556  0.55402690  0.43023150    -0.31900
H916        H  0.43902934  0.57014756  0.45786193     0.16600
C917        C  0.54061071  0.49066266  0.35461613    -0.30800
N918        N  0.56941884  0.48790586  0.38351995     0.13400
C919        C  0.55887773  0.49672287  0.41934866    -0.30800
C920        C  0.45333487  0.42406023  0.37673394    -0.31100
N921        N  0.43026518  0.42354265  0.40190574     0.13900
H922        H  0.45366828  0.40448364  0.35249111     0.16500
C923        C  0.44442879  0.44426356  0.43437021    -0.31100
H924        H  0.43121585  0.45017045  0.45992464     0.16500
H925        H  0.57594145  0.49421400  0.44809847     0.16500
H926        H  0.39466203  0.52132651  0.34959908     0.16600
H927        H  0.54050707  0.48228746  0.32371871     0.16500
O928        O  0.45584196  0.62090962  0.29988506    -0.80500
O929        O  0.29799630  0.62675872  0.31467381    -0.65200
O930        O  0.39258752  0.63889649  0.29932171    -1.11800
C931        C  0.40082685  0.39946948  0.39092506     1.06400
O932        O  0.29072862  0.35829168  0.30977411    -0.78400
O933        O  0.34783012  0.38541307  0.28368651    -0.66000
Ni934      Ni  0.41627305  0.59412529  0.31116104     1.34900
C935        C  0.37788283  0.39850482  0.28171671     0.85100
O936        O  0.34650753  0.58069472  0.27310805    -0.78900
O937        O  0.40155659  0.57968781  0.25768450    -0.89200
C938        C  0.27823833  0.65790752  0.30962256     0.84700
O939        O  0.42243278  0.60838797  0.36523042    -0.67400
O940        O  0.37344937  0.41149392  0.36572452    -0.86700
C941        C  0.39729387  0.59134433  0.37738626     0.85500
C942        C  0.37212681  0.56334905  0.25723309     1.07100
H943        H  0.35075569  0.66073599  0.37204537     0.38900
O944        O  0.35462594  0.33568859  0.34580672    -1.09400
O945        O  0.40320811  0.38392814  0.30754696    -0.66000
Ni946      Ni  0.40311746  0.33734771  0.34391186     1.26300
O947        O  0.36557562  0.59404684  0.35605159    -0.66200
O948        O  0.40948150  0.36465211  0.39237223    -0.78500
C949        C  0.46585255  0.65291140  0.31522654     0.84900
O950        O  0.45257606  0.33557345  0.34318914    -0.65700
Ni951      Ni  0.33236126  0.38330755  0.33561827     1.27400
Ni952      Ni  0.34750984  0.62795084  0.30832416     1.26100
H953        H  0.39339980  0.65027810  0.27339265     0.39500
C954        C  0.37898433  0.44002140  0.26214955     0.30400
C955        C  0.37370203  0.51899872  0.25292558     0.30400
C956        C  0.40674313  0.46309896  0.28839052    -0.05800
C957        C  0.38620394  0.45561863  0.21965572    -0.06600
C958        C  0.34262279  0.46035336  0.26549115    -0.06500
C959        C  0.40457078  0.50242935  0.28374052    -0.05800
C960        C  0.38123237  0.49704071  0.21477207    -0.06600
C961        C  0.34094666  0.49985360  0.26267562    -0.06500
C962        C  0.43871515  0.51501632  0.29749087    -0.31800
N963        N  0.45966273  0.48609610  0.31587712     0.14700
C964        C  0.44239753  0.45479273  0.30064314    -0.31900
H965        H  0.45575151  0.42777412  0.29596750     0.16600
C966        C  0.40464267  0.50924623  0.19050864    -0.30800
N967        N  0.42577521  0.47983124  0.18172753     0.13400
C968        C  0.41587974  0.44784643  0.20024123    -0.30800
C969        C  0.30560049  0.51095662  0.25526914    -0.31100
N970        N  0.28518825  0.47984815  0.25430491     0.13900
H971        H  0.29512793  0.53984441  0.24896310     0.16500
C972        C  0.30715418  0.44863414  0.25845241    -0.31100
H973        H  0.29747278  0.41990451  0.25495524     0.16500
H974        H  0.43277218  0.42233323  0.20569544     0.16500
H975        H  0.44664327  0.54432128  0.29985192     0.16600
H976        H  0.41136857  0.53889634  0.18757821     0.16500
C977        C  0.54394602  0.70268494  0.29100099    -0.25900
C978        C  0.53746643  0.69495684  0.24980246    -0.14000
C979        C  0.50283381  0.69024832  0.23010220     0.36600
C980        C  0.47811742  0.67899486  0.25319534    -0.25400
C981        C  0.48819952  0.67507393  0.29478280    -0.14600
C982        C  0.51931131  0.69122346  0.31455614     0.37700
N983        N  0.52716945  0.69213618  0.35760320    -0.88900
H984        H  0.57061744  0.70909964  0.30530703     0.18800
H985        H  0.45230544  0.66998621  0.23852860     0.18800
N986        N  0.49410458  0.68983209  0.18714032    -0.87900
H987        H  0.55144685  0.70512064  0.36685748     0.36200
H988        H  0.53021374  0.66383019  0.36792136     0.41300
H989        H  0.51564450  0.69892216  0.17427824     0.40900
H990        H  0.47376621  0.71043608  0.17902920     0.35800
C991        C  0.50158349  0.47291754  0.01064987    -0.25900
C992        C  0.50370336  0.50496293  0.48595402    -0.14000
C993        C  0.51657379  0.53918461  0.00544726     0.36600
C994        C  0.52624108  0.53984304  0.04778847    -0.25400
C995        C  0.52374944  0.50747390  0.07209712    -0.14600
C996        C  0.50911436  0.47400796  0.05245944     0.37700
N997        N  0.50177353  0.43965250  0.07301335    -0.88900
H998        H  0.49353664  0.44559838  0.99802225     0.18800
H999        H  0.53508981  0.56646638  0.06160796     0.18800
N1000       N  0.52042143  0.57388596  0.98386643    -0.87900
H1001       H  0.47493878  0.43386429  0.06396542     0.36200
H1002       H  0.50419313  0.44268766  0.10384936     0.41300
H1003       H  0.51313283  0.57074956  0.45306200     0.40900
H1004       H  0.54741731  0.58010063  0.98854803     0.35800
C1005       C  0.97853523  0.51144344  0.25984437    -0.25900
C1006       C  0.99106812  0.50640735  0.30098457    -0.14000
C1007       C  0.01977260  0.52781499  0.32002888     0.36600
C1008       C  0.03937682  0.54719949  0.29555330    -0.25400
C1009       C  0.03321863  0.53967739  0.25439393    -0.14600
C1010       C  0.99955169  0.52946578  0.23604278     0.37700
N1011       N  0.98975894  0.53152896  0.19317600    -0.88900
H1012       H  0.95384597  0.49904619  0.24603062     0.18800
H1013       H  0.06454030  0.55872079  0.30910102     0.18800
N1014       N  0.03230303  0.52700835  0.36249289    -0.87900
H1015       H  0.96399346  0.52183179  0.18459559     0.36200
H1016       H  0.00666611  0.51286548  0.18023588     0.41300
H1017       H  0.01759186  0.50919631  0.37784573     0.40900
H1018       H  0.02949096  0.55478984  0.37337663     0.35800
C1019       C  0.03847940  0.68140370  0.01045533    -0.25900
C1020       C  0.00390806  0.33767955  0.99379594    -0.14000
C1021       C  0.97881441  0.33679938  0.02106861     0.36600
C1022       C  0.99063128  0.34112662  0.06215812    -0.25400
C1023       C  0.02674353  0.34058743  0.07899510    -0.14600
C1024       C  0.05110550  0.67976658  0.05172111     0.37700
N1025       N  0.08847567  0.68570123  0.06349910    -0.88900
H1026       H  0.05653140  0.69162049  0.99185756     0.18800
H1027       H  0.97058960  0.34671572  0.08050160     0.18800
N1028       N  0.94108219  0.33327173  0.50965350    -0.87900
H1029       H  0.10240335  0.66402603  0.05053433     0.36200
H1030       H  0.09663896  0.68344882  0.09412957     0.41300
H1031       H  0.93313622  0.32986288  0.47921420     0.40900
H1032       H  0.92858697  0.35860127  0.01753533     0.35800
C1033       C  0.99516469  0.32958868  0.94821336     0.30400
C1034       C  0.97729599  0.64978301  0.86830501     0.30400
C1035       C  0.96555945  0.35603383  0.92627187    -0.05800
C1036       C  0.02584683  0.33429317  0.92171183    -0.06600
C1037       C  0.98113138  0.62153119  0.93634882    -0.06500
C1038       C  0.95354628  0.34478253  0.88814486    -0.05800
C1039       C  0.01492373  0.66360802  0.87989585    -0.06600
C1040       C  0.97906709  0.61383379  0.89488830    -0.06500
C1041       C  0.91811727  0.35579153  0.88152510    -0.31800
N1042       N  0.91239959  0.38525338  0.90566189     0.14700
C1043       C  0.94141440  0.38423787  0.93514385    -0.31900
H1044       H  0.94448304  0.40245616  0.96133594     0.16600
C1045       C  0.04450321  0.65407442  0.86255342    -0.30800
N1046       N  0.07329994  0.65178178  0.89142035     0.13400
C1047       C  0.06249122  0.65800552  0.92732101    -0.30800
C1048       C  0.95797891  0.58414302  0.88627354    -0.31100
N1049       N  0.93691436  0.58082903  0.91331181     0.13900
H1050       H  0.95729781  0.56575905  0.86099499     0.16500
C1051       C  0.95161810  0.60113129  0.94592345    -0.31100
H1052       H  0.94098375  0.60185458  0.97368015     0.16500
H1053       H  0.07999017  0.65266443  0.95529321     0.16500
H1054       H  0.89823613  0.34725261  0.85730038     0.16600
H1055       H  0.04465722  0.64682862  0.83140977     0.16500
O1056       O  0.96127783  0.44990615  0.80540252    -0.80500
O1057       O  0.80248130  0.45306167  0.81987385    -0.65200
O1058       O  0.89744936  0.46700158  0.80554678    -1.11800
C1059       C  0.90721366  0.55678358  0.90251730     1.06400
O1060       O  0.79468029  0.51778809  0.82427208    -0.78400
O1061       O  0.84976013  0.54929967  0.79719735    -0.66000
Ni1062     Ni  0.92181727  0.42210460  0.81604360     1.34900
C1063       C  0.88013842  0.56083046  0.79359277     0.85100
O1064       O  0.85195006  0.40949928  0.77720540    -0.78900
O1065       O  0.90740666  0.40771318  0.76258895    -0.89200
C1066       C  0.78242308  0.48402133  0.81806250     0.84700
O1067       O  0.92723761  0.43557027  0.87002930    -0.67400
O1068       O  0.87893265  0.56960901  0.87931020    -0.86700
C1069       C  0.90185906  0.41857574  0.88178477     0.85500
C1070       C  0.87790567  0.39147283  0.76241334     1.07100
H1071       H  0.85661326  0.48435993  0.87995469     0.38900
O1072       O  0.85977996  0.49449047  0.85418159    -1.09400
O1073       O  0.90636667  0.54486054  0.81716899    -0.66000
Ni1074     Ni  0.90808431  0.49704128  0.85169976     1.26300
O1075       O  0.87040438  0.42043884  0.86004562    -0.66200
O1076       O  0.91560018  0.52201552  0.90172526    -0.78500
C1077       C  0.97080236  0.48172856  0.82169731     0.84900
O1078       O  0.95730050  0.49636072  0.85019498    -0.65700
Ni1079     Ni  0.83701351  0.54219911  0.84971462     1.27400
Ni1080     Ni  0.85234813  0.45547124  0.81401650     1.26100
H1081       H  0.89834470  0.47933632  0.78012096     0.39500
C1082       C  0.88191441  0.60165889  0.77323973     0.30400
C1083       C  0.87920299  0.34678516  0.76033485     0.30400
C1084       C  0.91076912  0.62462912  0.79782042    -0.05800
C1085       C  0.88844525  0.61443160  0.72995980    -0.06600
C1086       C  0.84652280  0.62363766  0.77672285    -0.06500
C1087       C  0.90983883  0.33044644  0.79146531    -0.05800
C1088       C  0.88524353  0.32240567  0.72307566    -0.06600
C1089       C  0.84617743  0.32972846  0.77181161    -0.06500
C1090       C  0.94421842  0.34226157  0.80504859    -0.31800
N1091       N  0.96427131  0.64631114  0.82422898     0.14700
C1092       C  0.94615776  0.61537951  0.80974111    -0.31900
H1093       H  0.95886457  0.58816400  0.80445370     0.16600
C1094       C  0.90928596  0.33139161  0.69828635    -0.30800
N1095       N  0.92863942  0.63329761  0.69090864     0.13400
C1096       C  0.91709355  0.60319907  0.71060017    -0.29600
C1097       C  0.81144773  0.34151910  0.76056628    -0.31100
N1098       N  0.79000198  0.64474479  0.75946630     0.13900
H1099       H  0.80235165  0.36997668  0.75023969     0.16500
C1100       C  0.81088375  0.61298951  0.76728699    -0.31100
H1101       H  0.80074084  0.58445503  0.76341405     0.16500
H1102       H  0.93248906  0.57681310  0.71705625     0.16500
H1103       H  0.95274698  0.37141364  0.80665979     0.16600
H1104       H  0.91774344  0.36019388  0.69394683     0.16500
C1105       C  0.05647244  0.66606599  0.70549862     0.30400
C1106       C  0.03729622  0.33691315  0.62498785     0.30400
C1107       C  0.07721361  0.63982392  0.68127861    -0.05800
C1108       C  0.01809088  0.65824836  0.69133413    -0.06600
C1109       C  0.06425783  0.37039174  0.68728210    -0.06500
C1110       C  0.06628184  0.63813130  0.64032558    -0.05800
C1111       C  0.00711073  0.65926385  0.65026564    -0.06600
C1112       C  0.05278003  0.37517857  0.64603322    -0.06500
C1113       C  0.09486109  0.61880300  0.62632016    -0.31800
N1114       N  0.12379287  0.61628731  0.65621435     0.14700
C1115       C  0.11338423  0.63514295  0.68661246    -0.31900
H1116       H  0.13185914  0.64343677  0.71235027     0.16600
C1117       C  0.97249457  0.64466971  0.64569405    -0.30800
N1118       N  0.96361725  0.63659137  0.68234166     0.13400
C1119       C  0.99159172  0.64485999  0.71041406    -0.30800
C1120       C  0.07617131  0.40280984  0.63507013    -0.31100
N1121       N  0.10404757  0.40798715  0.66534778     0.13900
H1122       H  0.07411732  0.41616027  0.60587475     0.16500
C1123       C  0.09718352  0.38623257  0.69507238    -0.31100
H1124       H  0.11686078  0.38176918  0.72124686     0.16500
H1125       H  0.99229762  0.64203321  0.74245466     0.16500
H1126       H  0.09535223  0.60952268  0.59583274     0.16600
H1127       H  0.95488154  0.63887880  0.61820794     0.16500
O1128       O  0.06916773  0.48355770  0.75943710    -0.80500
O1129       O  0.22592488  0.45532787  0.74246903    -0.65200
O1130       O  0.13380530  0.48656190  0.76032677    -1.11800
C1131       C  0.14282227  0.58231897  0.67216107     1.06400
O1132       O  0.23551873  0.51454459  0.76530617    -0.78400
O1133       O  0.18373733  0.55886616  0.78204404    -0.66000
Ni1134     Ni  0.10479727  0.44757047  0.74706265     1.34900
C1135       C  0.15410828  0.57608194  0.78036990     0.85100
O1136       O  0.17432314  0.42073652  0.78448786    -0.78900
O1137       O  0.11910384  0.42563550  0.79958473    -0.89200
C1138       C  0.24733220  0.48284113  0.75323288     0.84700
O1139       O  0.10016982  0.46567822  0.69398710    -0.67400
O1140       O  0.17182638  0.58579465  0.69787495    -0.86700
C1141       C  0.12125652  0.44193338  0.68126323     0.85500
C1142       C  0.14893582  0.40670182  0.80154719     1.07100
H1143       H  0.17898530  0.50186193  0.68901791     0.38900
O1144       O  0.17510185  0.50953622  0.71554655    -1.09400
O1145       O  0.13012376  0.56572430  0.75227465    -0.66000
Ni1146     Ni  0.12713398  0.52101530  0.71632795     1.26300
O1147       O  0.15366314  0.43809426  0.70118931    -0.66200
O1148       O  0.12476398  0.55245397  0.67069967    -0.78500
C1149       C  0.06144275  0.51644262  0.74243174     0.84900
O1150       O  0.07823101  0.53044071  0.71682099    -0.65700
Ni1151     Ni  0.20388048  0.54966904  0.73308992     1.27400
Ni1152     Ni  0.17711375  0.46679341  0.75016068     1.26100
H1153       H  0.13444852  0.49751012  0.78673743     0.39500
C1154       C  0.15167418  0.61660618  0.80042663     0.30400
C1155       C  0.15045336  0.36223892  0.81009188     0.30400
C1156       C  0.11901139  0.63892015  0.78009161    -0.05800
C1157       C  0.14940512  0.63051503  0.84471262    -0.06600
C1158       C  0.18392634  0.63781749  0.79078805    -0.06500
C1159       C  0.11830363  0.34465360  0.78474726    -0.05800
C1160       C  0.14973361  0.33911934  0.84981194    -0.06600
C1161       C  0.18302677  0.34390259  0.79512930    -0.06500
C1162       C  0.08382039  0.35697703  0.77079789    -0.31800
N1163       N  0.06716496  0.66165527  0.74933264     0.14700
C1164       C  0.08536357  0.62929414  0.76301302    -0.31900
H1165       H  0.07714590  0.60119038  0.75315772     0.16600
C1166       C  0.12551047  0.34789037  0.87525677    -0.30800
N1167       N  0.10890637  0.64949216  0.88424517     0.13400
C1168       C  0.12314706  0.61904424  0.86648906    -0.30800
C1169       C  0.21812925  0.35443895  0.80298076    -0.31100
N1170       N  0.24013737  0.65675243  0.80210400     0.13900
H1171       H  0.22722748  0.38243008  0.81288599     0.16500
C1172       C  0.21984751  0.62600788  0.79616783    -0.31100
H1173       H  0.23113067  0.59727083  0.79964706     0.16500
H1174       H  0.10988894  0.59207829  0.86171581     0.16500
H1175       H  0.07388998  0.38631809  0.76866770     0.16600
H1176       H  0.11428166  0.37645402  0.87807596     0.16500
C1177       C  0.53714781  0.50777008  0.61781735     0.30400
C1178       C  0.55609744  0.49826675  0.69826287     0.30400
C1179       C  0.56198615  0.53954200  0.63849794    -0.05800
C1180       C  0.50581368  0.50809697  0.64404611    -0.06600
C1181       C  0.56034686  0.47081117  0.63171333    -0.06500
C1182       C  0.57420730  0.53065775  0.67857050    -0.05800
C1183       C  0.51669523  0.50479569  0.68562213    -0.06600
C1184       C  0.56298038  0.46381520  0.67262226    -0.06500
C1185       C  0.61011051  0.53791684  0.68385995    -0.31800
N1186       N  0.61766078  0.56356204  0.65740328     0.14700
C1187       C  0.58893987  0.56219233  0.62733444    -0.31900
H1188       H  0.58905377  0.57455557  0.59805410     0.16600
C1189       C  0.48899765  0.49071095  0.70254317    -0.30800
N1190       N  0.46057343  0.48649419  0.67366376     0.13400
C1191       C  0.47007155  0.49723061  0.63790741    -0.30800
C1192       C  0.58946988  0.43889672  0.68255132    -0.31100
N1193       N  0.61045086  0.43590088  0.65522349     0.13900
H1194       H  0.58770730  0.41737263  0.70398139     0.16500
C1195       C  0.59239110  0.45402492  0.62183885    -0.31100
H1196       H  0.60204212  0.45634843  0.59351008     0.16500
H1197       H  0.45303936  0.49507331  0.60920844     0.16500
H1198       H  0.63019514  0.52740264  0.70751428     0.16600
H1199       H  0.48995422  0.48258875  0.73363340     0.16500
O1200       O  0.57291631  0.63880065  0.75445920    -0.80500
O1201       O  0.73123696  0.62072758  0.74359657    -0.65200
O1202       O  0.63703501  0.64600740  0.75626478    -1.11800
C1203       C  0.63790934  0.40710849  0.66499833     1.06400
O1204       O  0.74046667  0.35071612  0.75355321    -0.78400
O1205       O  0.68554568  0.38917781  0.77445959    -0.66000
Ni1206     Ni  0.61059957  0.60453095  0.74461837     1.34900
C1207       C  0.65512977  0.40420007  0.77472017     0.85100
O1208       O  0.68026890  0.58338574  0.78429512    -0.78900
O1209       O  0.62468855  0.58754557  0.79830246    -0.89200
C1210       C  0.75202518  0.64938998  0.75111369     0.84700
O1211       O  0.60601327  0.61844166  0.69045836    -0.67400
O1212       O  0.66556639  0.41491580  0.69104346    -0.86700
C1213       C  0.63020334  0.59749044  0.67908100     0.85500
C1214       C  0.65427059  0.56867060  0.79984419     1.07100
H1215       H  0.68235771  0.66145683  0.68571151     0.38900
O1216       O  0.67798887  0.33712652  0.71163687    -1.09400
O1217       O  0.63072337  0.39126731  0.74809397    -0.66000
Ni1218     Ni  0.62971549  0.34531213  0.71127472     1.26300
O1219       O  0.66195572  0.59668619  0.70077379    -0.66200
O1220       O  0.62670737  0.37364781  0.66291736    -0.78500
C1221       C  0.56444921  0.67098363  0.73656348     0.84900
O1222       O  0.58027477  0.35076219  0.70975163    -0.65700
Ni1223     Ni  0.70291034  0.38144068  0.72385341     1.27400
Ni1224     Ni  0.68171415  0.62905563  0.74864487     1.26100
H1225       H  0.63646379  0.65793643  0.78203341     0.39500
C1226       C  0.65225441  0.44553393  0.79445463     0.30400
C1227       C  0.65393087  0.52424788  0.80488426     0.30400
C1228       C  0.62250476  0.46960652  0.76975404    -0.05800
C1229       C  0.64570419  0.46003596  0.83757228    -0.06600
C1230       C  0.68742357  0.46530798  0.79018859    -0.06500
C1231       C  0.62343891  0.50881082  0.77463920    -0.05800
C1232       C  0.64814708  0.50148904  0.84303763    -0.06600
C1233       C  0.68750118  0.50476874  0.79409079    -0.06500
C1234       C  0.58904317  0.52286341  0.76123316    -0.31800
N1235       N  0.56892906  0.49481303  0.74263482     0.14700
C1236       C  0.58671571  0.46282875  0.75862692    -0.31900
H1237       H  0.57455491  0.43541872  0.75978903     0.16600
C1238       C  0.62365086  0.51263187  0.86726682    -0.30800
N1239       N  0.60478703  0.48251125  0.87579932     0.13400
C1240       C  0.61712456  0.45108668  0.85735655    -0.30800
C1241       C  0.72249328  0.51451666  0.80519614    -0.31100
N1242       N  0.74422851  0.48295870  0.80720129     0.13900
H1243       H  0.73137151  0.54262942  0.81491267     0.16500
C1244       C  0.72322820  0.45258867  0.79987757    -0.31100
H1245       H  0.73342104  0.42352656  0.80506035     0.16500
H1246       H  0.60219756  0.42523963  0.85194883     0.16500
H1247       H  0.58071633  0.55266023  0.75852223     0.16600
H1248       H  0.61456668  0.54202978  0.87026901     0.16500
C1249       C  0.49228718  0.50078033  0.93989897     0.30400
C1250       C  0.47328060  0.48931264  0.85989839     0.30400
C1251       C  0.46179280  0.52753837  0.91968525    -0.05800
C1252       C  0.52236639  0.50616964  0.91322412    -0.06600
C1253       C  0.47648716  0.46064884  0.92648023    -0.06500
C1254       C  0.44995885  0.51804066  0.88061925    -0.05800
C1255       C  0.51123307  0.50231064  0.87139285    -0.06600
C1256       C  0.47544413  0.45272680  0.88550788    -0.06500
C1257       C  0.41440404  0.52892777  0.87434634    -0.31800
N1258       N  0.40806464  0.55688881  0.89998489     0.14700
C1259       C  0.43667581  0.55403656  0.93021171    -0.31900
H1260       H  0.43903577  0.57015419  0.95784382     0.16600
C1261       C  0.54062422  0.49063555  0.85462304    -0.30800
N1262       N  0.56942839  0.48788676  0.88353364     0.13400
C1263       C  0.55888084  0.49671373  0.91935596    -0.30800
C1264       C  0.45331505  0.42407055  0.87672447    -0.31100
N1265       N  0.43025012  0.42355228  0.90190184     0.13900
H1266       H  0.45364843  0.40449184  0.85248471     0.16500
C1267       C  0.44441900  0.44427114  0.93436570    -0.31100
H1268       H  0.43121166  0.45017590  0.95992483     0.16500
H1269       H  0.57594040  0.49421570  0.94810934     0.16500
H1270       H  0.39467046  0.52131967  0.84959021     0.16600
H1271       H  0.54052680  0.48225470  0.82372834     0.16500
O1272       O  0.45583656  0.62092448  0.79982462    -0.80500
O1273       O  0.29800560  0.62675562  0.81467012    -0.65200
O1274       O  0.39258885  0.63889893  0.79929159    -1.11800
C1275       C  0.40081380  0.39947562  0.89092625     1.06400
O1276       O  0.29072762  0.35829177  0.80975276    -0.78400
O1277       O  0.34783075  0.38541383  0.78368048    -0.66000
Ni1278     Ni  0.41628054  0.59412727  0.81111809     1.34900
C1279       C  0.37788252  0.39850960  0.78171714     0.85100
O1280       O  0.34651144  0.58069590  0.77308924    -0.78900
O1281       O  0.40155398  0.57969133  0.75764508    -0.89200
C1282       C  0.27824773  0.65790458  0.80961963     0.84700
O1283       O  0.42245001  0.60838165  0.86519046    -0.67400
O1284       O  0.37343603  0.41149709  0.86572413    -0.86700
C1285       C  0.39731018  0.59134617  0.87735618     0.85500
C1286       C  0.37212750  0.56334999  0.75720852     1.07100
H1287       H  0.35077104  0.66073367  0.87202963     0.38900
O1288       O  0.35462097  0.33569373  0.84580447    -1.09400
O1289       O  0.40320456  0.38393754  0.80755255    -0.66000
Ni1290     Ni  0.40311251  0.33735644  0.84391263     1.26300
O1291       O  0.36558970  0.59404954  0.85602869    -0.66200
O1292       O  0.40947195  0.36465879  0.89237472    -0.78500
C1293       C  0.46584614  0.65292454  0.81517089     0.84900
O1294       O  0.45257084  0.33558765  0.84319195    -0.65700
Ni1295     Ni  0.33235376  0.38330944  0.83560835     1.27400
Ni1296     Ni  0.34751580  0.62795103  0.80830552     1.26100
H1297       H  0.39339363  0.65028463  0.77336280     0.39500
C1298       C  0.37898449  0.44002437  0.76215044     0.30400
C1299       C  0.37370579  0.51899914  0.75291364     0.30400
C1300       C  0.40674864  0.46310251  0.78838308    -0.05800
C1301       C  0.38619932  0.45561262  0.71965269    -0.06600
C1302       C  0.34262692  0.46036016  0.76549915    -0.06500
C1303       C  0.40457772  0.50243269  0.78372764    -0.05800
C1304       C  0.38122874  0.49703396  0.71476143    -0.06600
C1305       C  0.34095303  0.49985928  0.76267561    -0.06500
C1306       C  0.43872305  0.51501809  0.79747490    -0.31800
N1307       N  0.45967067  0.48609721  0.81586333     0.14700
C1308       C  0.44240358  0.45479473  0.80063035    -0.31900
H1309       H  0.45575497  0.42777300  0.79596141     0.16600
C1310       C  0.40464038  0.50923293  0.69049647    -0.30800
N1311       N  0.42577470  0.47981580  0.68172523     0.13400
C1312       C  0.41587640  0.44783496  0.70024248    -0.30800
C1313       C  0.30560816  0.51096679  0.75528494    -0.31100
N1314       N  0.28519520  0.47986106  0.75433615     0.13900
H1315       H  0.29513565  0.53985390  0.74897465     0.16500
C1316       C  0.30715745  0.44864463  0.75847984    -0.31100
H1317       H  0.29747146  0.41991665  0.75499050     0.16500
H1318       H  0.43276893  0.42232286  0.70570574     0.16500
H1319       H  0.44665177  0.54432326  0.79982912     0.16600
H1320       H  0.41136733  0.53888202  0.68756093     0.16500
C1321       C  0.54392637  0.70272534  0.79096236    -0.25900
C1322       C  0.53746131  0.69498479  0.74976688    -0.14000
C1323       C  0.50283368  0.69026892  0.73005435     0.36600
C1324       C  0.47811114  0.67901320  0.75313869    -0.25400
C1325       C  0.48818454  0.67509877  0.79472819    -0.14600
C1326       C  0.51928666  0.69126199  0.81450866     0.37700
N1327       N  0.52713315  0.69218252  0.85755616    -0.88900
H1328       H  0.57059346  0.70914738  0.80527697     0.18800
H1329       H  0.45230438  0.66999588  0.73846523     0.18800
N1330       N  0.49411762  0.68984762  0.68709140    -0.87900
H1331       H  0.55140381  0.70517853  0.86681628     0.36200
H1332       H  0.53018556  0.66387853  0.86787962     0.41300
H1333       H  0.51566260  0.69893720  0.67423797     0.40900
H1334       H  0.47377950  0.71045006  0.67897062     0.35800
C1335       C  0.50157967  0.47291876  0.51066418    -0.25900
C1336       C  0.50370198  0.50496368  0.98594124    -0.14000
C1337       C  0.51657839  0.53918256  0.50546073     0.36600
C1338       C  0.52624722  0.53984056  0.54780222    -0.25400
C1339       C  0.52375420  0.50747237  0.57211193    -0.14600
C1340       C  0.50911473  0.47400815  0.55247420     0.37700
N1341       N  0.50177303  0.43965290  0.57302788    -0.88900
H1342       H  0.49352667  0.44560128  0.49803758     0.18800
H1343       H  0.53509798  0.56646342  0.56162103     0.18800
N1344       N  0.52042828  0.57388327  0.48388016    -0.87900
H1345       H  0.47493529  0.43387241  0.56398999     0.36200
H1346       H  0.50420644  0.44268147  0.60386552     0.41300
H1347       H  0.51313453  0.57074930  0.95304756     0.40900
H1348       H  0.54742561  0.58009160  0.48855519     0.35800
C1349       C  0.97853610  0.51141730  0.75981867    -0.25900
C1350       C  0.99106925  0.50639597  0.80096102    -0.14000
C1351       C  0.01976813  0.52781558  0.81999789     0.36600
C1352       C  0.03936473  0.54720301  0.79551624    -0.25400
C1353       C  0.03320954  0.53966979  0.75435890    -0.14600
C1354       C  0.99954679  0.52944091  0.73601120     0.37700
N1355       N  0.98975439  0.53148873  0.69314369    -0.88900
H1356       H  0.95385098  0.49900907  0.74600856     0.18800
H1357       H  0.06452439  0.55873509  0.80906106     0.18800
N1358       N  0.03230158  0.52701857  0.86246135    -0.87900
H1359       H  0.96399185  0.52178210  0.68456662     0.36200
H1360       H  0.00666715  0.51282599  0.68021074     0.41300
H1361       H  0.01759787  0.50920254  0.87781906     0.40900
H1362       H  0.02948149  0.55480062  0.87334033     0.35800
C1363       C  0.03850350  0.68138645  0.51046665    -0.25900
C1364       C  0.00393034  0.33767656  0.49380718    -0.14000
C1365       C  0.97883809  0.33681230  0.52108222     0.36600
C1366       C  0.99065892  0.34114453  0.56216924    -0.25400
C1367       C  0.02677216  0.34058623  0.57900267    -0.14600
C1368       C  0.05112880  0.67976049  0.55173203     0.37700
N1369       N  0.08850001  0.68568955  0.56350957    -0.88900
H1370       H  0.05655760  0.69159320  0.49186667     0.18800
H1371       H  0.97062033  0.34674959  0.58051414     0.18800
N1372       N  0.94106003  0.33324920  0.00963473    -0.87900
H1373       H  0.10242490  0.66400591  0.55055373     0.36200
H1374       H  0.09666150  0.68344734  0.59414120     0.41300
H1375       H  0.93311733  0.32984902  0.97919366     0.40900
H1376       H  0.92861586  0.35863019  0.51754818     0.35800
C1377       C  0.99517032  0.66292225  0.44823655     0.30400
C1378       C  0.97730050  0.98310200  0.36832681     0.30400
C1379       C  0.96556280  0.68936896  0.42630267    -0.05800
C1380       C  0.02584669  0.66762649  0.42172667    -0.06600
C1381       C  0.98114232  0.95485893  0.43637502    -0.06500
C1382       C  0.95354130  0.67811620  0.38817914    -0.05800
C1383       C  0.01493108  0.99692115  0.37990671    -0.06600
C1384       C  0.97907039  0.94715640  0.39491536    -0.06500
C1385       C  0.91811391  0.68913065  0.38156586    -0.31800
N1386       N  0.91240499  0.71859579  0.40570207     0.14700
C1387       C  0.94142458  0.71757907  0.43517812    -0.31900
H1388       H  0.94450169  0.73580133  0.46136729     0.16600
C1389       C  0.04450512  0.98738720  0.36255520    -0.30800
N1390       N  0.07330696  0.98509597  0.39141547     0.13400
C1391       C  0.06250651  0.99132013  0.42732032    -0.30800
C1392       C  0.95797786  0.91746826  0.38630879    -0.31100
N1393       N  0.93691619  0.91416203  0.41335131     0.13900
H1394       H  0.95728877  0.89908455  0.36103015     0.16500
C1395       C  0.95162735  0.93446663  0.44595817    -0.31100
H1396       H  0.94099733  0.93519616  0.47371757     0.16500
H1397       H  0.08001133  0.98597967  0.45528849     0.16500
H1398       H  0.89822869  0.68059405  0.35734412     0.16600
H1399       H  0.04465264  0.98014259  0.33141002     0.16500
O1400       O  0.96127032  0.78325863  0.30543371    -0.80500
O1401       O  0.80247893  0.78638887  0.31991458    -0.65200
O1402       O  0.89744260  0.80034275  0.30558749    -1.11800
C1403       C  0.90721183  0.89011869  0.40256530     1.06400
O1404       O  0.79467188  0.85111204  0.32434318    -0.78400
O1405       O  0.84973997  0.88264358  0.29725722    -0.66000
Ni1406     Ni  0.92181546  0.75544826  0.31607932     1.34900
C1407       C  0.88011962  0.89416524  0.29364056     0.85100
O1408       O  0.85194420  0.74284078  0.27724220    -0.78900
O1409       O  0.90740032  0.74105453  0.26262510    -0.89200
C1410       C  0.78241851  0.81734570  0.31810856     0.84700
O1411       O  0.92723866  0.76891249  0.37006566    -0.67400
O1412       O  0.87892723  0.90294427  0.37936458    -0.86700
C1413       C  0.90186178  0.75191598  0.38182276     0.85500
C1414       C  0.87789899  0.72481411  0.26245008     1.07100
H1415       H  0.85661224  0.81768678  0.38000188     0.38900
O1416       O  0.85977551  0.82782218  0.35422969    -1.09400
O1417       O  0.90635045  0.87819535  0.31721203    -0.66000
Ni1418     Ni  0.90807784  0.83037869  0.35174340     1.26300
O1419       O  0.87040668  0.75377417  0.36008367    -0.66200
O1420       O  0.91559519  0.85535010  0.40177150    -0.78500
C1421       C  0.97079401  0.81508038  0.32173141     0.84900
O1422       O  0.95729317  0.82970708  0.35023236    -0.65700
Ni1423     Ni  0.83700568  0.87552939  0.34977837     1.27400
Ni1424     Ni  0.85234381  0.78880758  0.31405843     1.26100
H1425       H  0.89833560  0.81267972  0.28016246     0.39500
C1426       C  0.88190113  0.93498714  0.27327661     0.30400
C1427       C  0.87919294  0.68012590  0.26037195     0.30400
C1428       C  0.91075879  0.95795441  0.29785508    -0.05800
C1429       C  0.88843442  0.94775522  0.22999509    -0.06600
C1430       C  0.84651302  0.95697106  0.27675770    -0.06500
C1431       C  0.90982351  0.66378644  0.29150567    -0.05800
C1432       C  0.88523559  0.65574432  0.22311467    -0.06600
C1433       C  0.84616533  0.66307173  0.27184672    -0.06500
C1434       C  0.94420450  0.67559824  0.30508302    -0.31800
N1435       N  0.96426691  0.97962761  0.32425343     0.14700
C1436       C  0.94614631  0.94869851  0.30977275    -0.31900
H1437       H  0.95884786  0.92148062  0.30448354     0.16600
C1438       C  0.90927888  0.66472632  0.19832439    -0.30800
N1439       N  0.92862608  0.96661611  0.19093606     0.13400
C1440       C  0.91708188  0.93652001  0.21063391    -0.29600
C1441       C  0.81143826  0.67486189  0.26058691    -0.31100
N1442       N  0.78999617  0.97808301  0.25949221     0.13900
H1443       H  0.80234678  0.70331900  0.25025404     0.16500
C1444       C  0.81087438  0.94632613  0.26731457    -0.31100
H1445       H  0.80073078  0.91779235  0.26343294     0.16500
H1446       H  0.93247612  0.91013339  0.21708968     0.16500
H1447       H  0.95273570  0.70474946  0.30669336     0.16600
H1448       H  0.91773881  0.69352709  0.19398237     0.16500
C1449       C  0.05645749  0.99938312  0.20548601     0.30400
C1450       C  0.03727069  0.67024137  0.12498495     0.30400
C1451       C  0.07719462  0.97314405  0.18126055    -0.05800
C1452       C  0.01807508  0.99156140  0.19133023    -0.06600
C1453       C  0.06422395  0.70372322  0.18728127    -0.06500
C1454       C  0.06625671  0.97145254  0.14030877    -0.05800
C1455       C  0.00708539  0.99257949  0.15026241    -0.06600
C1456       C  0.05274072  0.70851134  0.14603239    -0.06500
C1457       C  0.09483350  0.95212312  0.12629840    -0.31800
N1458       N  0.12376925  0.94960713  0.15618853     0.14700
C1459       C  0.11336495  0.96846393  0.18658821    -0.31900
H1460       H  0.13184255  0.97675737  0.21232394     0.16600
C1461       C  0.97246688  0.97799062  0.14570311    -0.30800
N1462       N  0.96360025  0.96990746  0.18235538     0.13400
C1463       C  0.99158201  0.97817218  0.21041946    -0.30800
C1464       C  0.07612561  0.73614894  0.13506770    -0.31100
N1465       N  0.10400452  0.74132653  0.16534129     0.13900
H1466       H  0.07406583  0.74950298  0.10587348     0.16500
C1467       C  0.09714470  0.71957428  0.19506874    -0.31100
H1468       H  0.11682632  0.71511276  0.22123935     0.16500
H1469       H  0.99229648  0.97534408  0.24246133     0.16500
H1470       H  0.09532242  0.94284846  0.09580869     0.16600
H1471       H  0.95484425  0.97220640  0.11822249     0.16500
O1472       O  0.06916581  0.81689230  0.25945689    -0.80500
O1473       O  0.22591349  0.78864483  0.24242700    -0.65200
O1474       O  0.13380134  0.81988676  0.26031753    -1.11800
C1475       C  0.14279791  0.91563848  0.17213710     1.06400
O1476       O  0.23551239  0.84786234  0.26525951    -0.78400
O1477       O  0.18374009  0.89219151  0.28201404    -0.66000
Ni1478     Ni  0.10478428  0.78090159  0.24706263     1.34900
C1479       C  0.15410999  0.90940393  0.28035152     0.85100
O1480       O  0.17431331  0.75405666  0.28446249    -0.78900
O1481       O  0.11910022  0.75896192  0.29957998    -0.89200
C1482       C  0.24732404  0.81615772  0.25318664     0.84700
O1483       O  0.10014551  0.79901457  0.19398768    -0.67400
O1484       O  0.17180814  0.91911338  0.19784176    -0.86700
C1485       C  0.12122366  0.77526817  0.18125162     0.85500
C1486       C  0.14892985  0.74002593  0.30153261     1.07100
H1487       H  0.17895878  0.83518142  0.18898670     0.38900
O1488       O  0.17508395  0.84285604  0.21551837    -1.09400
O1489       O  0.13012054  0.89904621  0.25226316    -0.66000
Ni1490     Ni  0.12711879  0.85433925  0.21631830     1.26300
O1491       O  0.15363443  0.77142115  0.20116592    -0.66200
O1492       O  0.12473619  0.88577661  0.17068740    -0.78500
C1493       C  0.06143897  0.84977761  0.24245432     0.84900
O1494       O  0.07821907  0.86377233  0.21683388    -0.65700
Ni1495     Ni  0.20386811  0.88298723  0.23305038     1.27400
Ni1496     Ni  0.17710278  0.80011348  0.25013362     1.26100
H1497       H  0.13445378  0.83083515  0.28672916     0.39500
C1498       C  0.15167472  0.94992748  0.30040935     0.30400
C1499       C  0.15044652  0.69556462  0.31008320     0.30400
C1500       C  0.11901080  0.97223988  0.28007215    -0.05800
C1501       C  0.14940627  0.96383926  0.34469432    -0.06600
C1502       C  0.18392589  0.97113848  0.29077076    -0.06500
C1503       C  0.11830065  0.67797790  0.28473388    -0.05800
C1504       C  0.14972197  0.67244582  0.34980255    -0.06600
C1505       C  0.18302275  0.67722986  0.29512825    -0.06500
C1506       C  0.08381388  0.69029710  0.27079526    -0.31800
N1507       N  0.06715988  0.99497295  0.24931905     0.14700
C1508       C  0.08536150  0.96261281  0.26299781    -0.31900
H1509       H  0.07714253  0.93450861  0.25314657     0.16600
C1510       C  0.12549698  0.68121775  0.37524471    -0.30800
N1511       N  0.10891044  0.98281311  0.38423028     0.13400
C1512       C  0.12315314  0.95236578  0.36647583    -0.30800
C1513       C  0.21812302  0.68777100  0.30298466    -0.31100
N1514       N  0.24013496  0.99007545  0.30209420     0.13900
H1515       H  0.22721724  0.71576322  0.31289127     0.16500
C1516       C  0.21984706  0.95932981  0.29615967    -0.31100
H1517       H  0.23113078  0.93059339  0.29964911     0.16500
H1518       H  0.10989999  0.92539649  0.36170957     0.16500
H1519       H  0.07387951  0.71963694  0.26867462     0.16600
H1520       H  0.11426888  0.70978165  0.37806435     0.16500
C1521       C  0.53714186  0.84111568  0.11780812     0.30400
C1522       C  0.55609560  0.83160523  0.19825098     0.30400
C1523       C  0.56199128  0.87287827  0.13848793    -0.05800
C1524       C  0.50580938  0.84145257  0.14403985    -0.06600
C1525       C  0.56033019  0.80415020  0.13169955    -0.06500
C1526       C  0.57421377  0.86398943  0.17855824    -0.05800
C1527       C  0.51669439  0.83814875  0.18561632    -0.06600
C1528       C  0.56296334  0.79715041  0.17260759    -0.06500
C1529       C  0.61011923  0.87123730  0.18384280    -0.31800
N1530       N  0.61767116  0.89688619  0.15739028     0.14700
C1531       C  0.58894822  0.89552245  0.12732311    -0.31900
H1532       H  0.58906397  0.90788223  0.09804149     0.16600
C1533       C  0.48900062  0.82405550  0.20253796    -0.30800
N1534       N  0.46057647  0.81983304  0.17366070     0.13400
C1535       C  0.47006996  0.83057580  0.13790412    -0.30800
C1536       C  0.58944266  0.77221783  0.18252960    -0.31100
N1537       N  0.61042005  0.76921911  0.15519839     0.13900
H1538       H  0.58768544  0.75069942  0.20396790     0.16500
C1539       C  0.59236760  0.78735541  0.12181881    -0.31100
H1540       H  0.60201999  0.78968224  0.09349114     0.16500
H1541       H  0.45303724  0.82841454  0.10920591     0.16500
H1542       H  0.63020380  0.86071487  0.20749308     0.16600
H1543       H  0.48996110  0.81592871  0.23362751     0.16500
O1544       O  0.57292084  0.97211305  0.25446532    -0.80500
O1545       O  0.73123637  0.95406234  0.24359877    -0.65200
O1546       O  0.63703370  0.97932780  0.25626084    -1.11800
C1547       C  0.63788163  0.74043169  0.16497014     1.06400
O1548       O  0.74045841  0.68405959  0.25349648    -0.78400
O1549       O  0.68554107  0.72251057  0.27442308    -0.66000
Ni1550     Ni  0.61060358  0.93784805  0.24461708     1.34900
C1551       C  0.65512457  0.73752785  0.27469419     0.85100
O1552       O  0.68027361  0.91671223  0.28429293    -0.78900
O1553       O  0.62469416  0.92086857  0.29830111    -0.89200
C1554       C  0.75202099  0.98272755  0.25111560     0.84700
O1555       O  0.60601527  0.95175749  0.19045604    -0.67400
O1556       O  0.66553928  0.74824416  0.19101042    -0.86700
C1557       C  0.63020863  0.93081172  0.17907711     0.85500
C1558       C  0.65427548  0.90199445  0.29983997     1.07100
H1559       H  0.68235119  0.99477860  0.18570337     0.38900
O1560       O  0.67797631  0.67045533  0.21160555    -1.09400
O1561       O  0.63071435  0.72459367  0.24807291    -0.66000
Ni1562     Ni  0.62970343  0.67863733  0.21125370     1.26300
O1563       O  0.66196038  0.93000917  0.20077134    -0.66200
O1564       O  0.62668386  0.70696980  0.16289372    -0.78500
C1565       C  0.56445170  0.00429706  0.23657429     0.84900
O1566       O  0.58026398  0.68408605  0.20974518    -0.65700
Ni1567     Ni  0.70289212  0.71477508  0.22380946     1.27400
Ni1568     Ni  0.68171337  0.96238223  0.24864135     1.26100
H1569       H  0.63646189  0.99125803  0.28202875     0.39500
C1570       C  0.65225088  0.77885991  0.29443410     0.30400
C1571       C  0.65393263  0.85757188  0.30487120     0.30400
C1572       C  0.62250503  0.80293621  0.26973272    -0.05800
C1573       C  0.64569704  0.79335923  0.33755160    -0.06600
C1574       C  0.68742352  0.79863198  0.29017596    -0.06500
C1575       C  0.62344200  0.84214027  0.27462134    -0.05800
C1576       C  0.64814481  0.83481109  0.34302112    -0.06600
C1577       C  0.68750220  0.83809307  0.29407915    -0.06500
C1578       C  0.58904684  0.85619602  0.26121920    -0.31800
N1579       N  0.56892951  0.82814828  0.24262147     0.14700
C1580       C  0.58671509  0.79616210  0.25860910    -0.31900
H1581       H  0.57455040  0.76875460  0.25977918     0.16600
C1582       C  0.62365090  0.84595647  0.36725148    -0.30800
N1583       N  0.60478272  0.81583867  0.37578097     0.13400
C1584       C  0.61711426  0.78441372  0.35733301    -0.30800
C1585       C  0.72249189  0.84783929  0.30520205    -0.31100
N1586       N  0.74422643  0.81628098  0.30722168     0.13900
H1587       H  0.73136693  0.87595147  0.31492477     0.16500
C1588       C  0.72322645  0.78591131  0.29988467    -0.31100
H1589       H  0.73341483  0.75684810  0.30507418     0.16500
H1590       H  0.60218309  0.75856978  0.35192248     0.16500
H1591       H  0.58072101  0.88599310  0.25851186     0.16600
H1592       H  0.61457199  0.87535562  0.37025791     0.16500
C1593       C  0.49229481  0.83411605  0.43990542     0.30400
C1594       C  0.47328141  0.82264409  0.35990603     0.30400
C1595       C  0.46179794  0.86087304  0.41969311    -0.05800
C1596       C  0.52237123  0.83950568  0.41322463    -0.06600
C1597       C  0.47649519  0.79398357  0.42648896    -0.06500
C1598       C  0.44996070  0.85137208  0.38062850    -0.05800
C1599       C  0.51123247  0.83564717  0.37139353    -0.06600
C1600       C  0.47545269  0.78605845  0.38551743    -0.06500
C1601       C  0.41440537  0.86225690  0.37435753    -0.31800
N1602       N  0.40806550  0.89021857  0.39999533     0.14700
C1603       C  0.43667922  0.88736949  0.43022028    -0.31900
H1604       H  0.43903988  0.90348810  0.45785184     0.16600
C1605       C  0.54061966  0.82397323  0.35461644    -0.30800
N1606       N  0.56942672  0.82121992  0.38352224     0.13400
C1607       C  0.55888532  0.83004601  0.41934834    -0.30800
C1608       C  0.45332726  0.75739799  0.37673687    -0.31100
N1609       N  0.43025897  0.75688501  0.40191058     0.13900
H1610       H  0.45366002  0.73781812  0.35249727     0.16500
C1611       C  0.44442510  0.77760839  0.43437230    -0.31100
H1612       H  0.43121402  0.78351904  0.45992737     0.16500
H1613       H  0.57594865  0.82754432  0.44809896     0.16500
H1614       H  0.39467211  0.85464727  0.34960148     0.16600
H1615       H  0.54051697  0.81559360  0.32372048     0.16500
O1616       O  0.45584113  0.95425402  0.29984486    -0.80500
O1617       O  0.29800299  0.96008043  0.31466508    -0.65200
O1618       O  0.39258932  0.97222444  0.29929867    -1.11800
C1619       C  0.40081940  0.73281259  0.39093410     1.06400
O1620       O  0.29072305  0.69163179  0.30977934    -0.78400
O1621       O  0.34782970  0.71874385  0.28369351    -0.66000
Ni1622     Ni  0.41628224  0.92745494  0.31113098     1.34900
C1623       C  0.37788303  0.73183441  0.28172463     0.85100
O1624       O  0.34651230  0.91401950  0.27309180    -0.78900
O1625       O  0.40155822  0.91301465  0.25765689    -0.89200
C1626       C  0.27824434  0.99122917  0.30961744     0.84700
O1627       O  0.42244682  0.94171314  0.36520187    -0.67400
O1628       O  0.37344374  0.74483517  0.36572970    -0.86700
C1629       C  0.39730770  0.92467475  0.37736487     0.85500
C1630       C  0.37212997  0.89667391  0.25721407     1.07100
H1631       H  0.35076314  0.99405955  0.37202805     0.38900
O1632       O  0.35461883  0.66902897  0.34582005    -1.09400
O1633       O  0.40320606  0.71726172  0.30756009    -0.66000
Ni1634     Ni  0.40311140  0.67068587  0.34392953     1.26300
O1635       O  0.36558797  0.92737494  0.35603365    -0.66200
O1636       O  0.40947211  0.69799463  0.39238760    -0.78500
C1637       C  0.46584951  0.98625398  0.31519390     0.84900
O1638       O  0.45257142  0.66890900  0.34321294    -0.65700
Ni1639     Ni  0.33235602  0.71664791  0.33562353     1.27400
Ni1640     Ni  0.34751459  0.96127562  0.30830704     1.26100
H1641       H  0.39339699  0.98360866  0.27336979     0.39500
C1642       C  0.37898646  0.77334747  0.26215112     0.30400
C1643       C  0.37370568  0.85232292  0.25291476     0.30400
C1644       C  0.40674556  0.79642726  0.28838914    -0.05800
C1645       C  0.38620833  0.78893823  0.21965552    -0.06600
C1646       C  0.34262436  0.79368115  0.26548812    -0.06500
C1647       C  0.40457355  0.83575713  0.28373414    -0.05800
C1648       C  0.38123530  0.83035928  0.21476477    -0.06600
C1649       C  0.34094910  0.83318077  0.26266557    -0.06500
C1650       C  0.43871844  0.84834391  0.29748346    -0.31800
N1651       N  0.45966662  0.81942454  0.31587259     0.14700
C1652       C  0.44240029  0.78812071  0.30064183    -0.31900
H1653       H  0.45575317  0.76110004  0.29597187     0.16600
C1654       C  0.40464348  0.84256243  0.19049854    -0.30800
N1655       N  0.42578006  0.81314826  0.18172581     0.13400
C1656       C  0.41588686  0.78116561  0.20024544    -0.30800
C1657       C  0.30560310  0.84428384  0.25525205    -0.31100
N1658       N  0.28518936  0.81317678  0.25429309     0.13900
H1659       H  0.29513200  0.87317099  0.24893808     0.16500
C1660       C  0.30715503  0.78196242  0.25844947    -0.31100
H1661       H  0.29747312  0.75323274  0.25495763     0.16500
H1662       H  0.43278226  0.75565573  0.20570814     0.16500
H1663       H  0.44664734  0.87764886  0.29983801     0.16600
H1664       H  0.41136639  0.87221270  0.18756206     0.16500
C1665       C  0.54394806  0.03602831  0.29099424    -0.25900
C1666       C  0.53747466  0.02830175  0.24979550    -0.14000
C1667       C  0.50284304  0.02360627  0.23008620     0.36600
C1668       C  0.47811896  0.01235521  0.25317074    -0.25400
C1669       C  0.48819448  0.00842721  0.29475834    -0.14600
C1670       C  0.51930457  0.02457359  0.31454066     0.37700
N1671       N  0.52715264  0.02548760  0.35758828    -0.88900
H1672       H  0.57061920  0.04243541  0.30530743     0.18800
H1673       H  0.45230764  0.00335114  0.23849736     0.18800
N1674       N  0.49412205  0.02319751  0.18712348    -0.87900
H1675       H  0.55142958  0.03847074  0.36684935     0.36200
H1676       H  0.53019270  0.99718202  0.36790801     0.41300
H1677       H  0.51566736  0.03228474  0.17426927     0.40900
H1678       H  0.47378909  0.04380723  0.17901109     0.35800
C1679       C  0.50159021  0.80626164  0.01065412    -0.25900
C1680       C  0.50371088  0.83829969  0.48594937    -0.14000
C1681       C  0.51658519  0.87252691  0.00545179     0.36600
C1682       C  0.52624774  0.87318674  0.04779395    -0.25400
C1683       C  0.52374995  0.84081939  0.07210302    -0.14600
C1684       C  0.50911490  0.80735377  0.05246386     0.37700
N1685       N  0.50176784  0.77299970  0.07301604    -0.88900
H1686       H  0.49354342  0.77894252  0.99802646     0.18800
H1687       H  0.53509797  0.89980954  0.06161376     0.18800
N1688       N  0.52043803  0.90722675  0.98387087    -0.87900
H1689       H  0.47493265  0.76721534  0.06396499     0.36200
H1690       H  0.50418589  0.77603332  0.10385195     0.41300
H1691       H  0.51316322  0.90407757  0.45305358     0.40900
H1692       H  0.54743450  0.91343902  0.98855595     0.35800
C1693       C  0.97852795  0.84477298  0.25985463    -0.25900
C1694       C  0.99106055  0.83975110  0.30099680    -0.14000
C1695       C  0.01976568  0.86116326  0.32003190     0.36600
C1696       C  0.03936975  0.88053795  0.29554817    -0.25400
C1697       C  0.03320997  0.87300525  0.25439079    -0.14600
C1698       C  0.99954372  0.86278558  0.23604500     0.37700
N1699       N  0.98975063  0.86483148  0.19317743    -0.88900
H1700       H  0.95383971  0.83237043  0.24604576     0.18800
H1701       H  0.06453335  0.89206223  0.30909102     0.18800
N1702       N  0.03229762  0.86036982  0.36249568    -0.87900
H1703       H  0.96398566  0.85513116  0.18460181     0.36200
H1704       H  0.00665867  0.84616263  0.18024508     0.41300
H1705       H  0.01758413  0.84256743  0.37785609     0.40900
H1706       H  0.02948986  0.88815594  0.37336906     0.35800
C1707       C  0.03847468  0.01473723  0.01045591    -0.25900
C1708       C  0.00389951  0.67102726  0.99380025    -0.14000
C1709       C  0.97880897  0.67014311  0.02107595     0.36600
C1710       C  0.99062982  0.67446511  0.06216516    -0.25400
C1711       C  0.02674319  0.67392013  0.07899829    -0.14600
C1712       C  0.05109790  0.01309999  0.05172166     0.37700
N1713       N  0.08846826  0.01903227  0.06350248    -0.88900
H1714       H  0.05652742  0.02495618  0.99186011     0.18800
H1715       H  0.97059046  0.68005314  0.08051188     0.18800
N1716       N  0.94107517  0.66659007  0.50966380    -0.87900
H1717       H  0.10239553  0.99735856  0.05053504     0.36200
H1718       H  0.09663092  0.01677357  0.09413258     0.41300
H1719       H  0.93312902  0.66318090  0.47922443     0.40900
H1720       H  0.92858121  0.69194264  0.01754902     0.35800
C1721       C  0.99515309  0.66293816  0.94821780     0.30400
C1722       C  0.97730453  0.98310851  0.86830277     0.30400
C1723       C  0.96554494  0.68938150  0.92627817    -0.05800
C1724       C  0.02583469  0.66764556  0.92171470    -0.06600
C1725       C  0.98113777  0.95485727  0.93634700    -0.06500
C1726       C  0.95353211  0.67812999  0.88815105    -0.05800
C1727       C  0.01493268  0.99693526  0.87989720    -0.06600
C1728       C  0.97907493  0.94715888  0.89488611    -0.06500
C1729       C  0.91810187  0.68913546  0.88153229    -0.31800
N1730       N  0.91238151  0.71859583  0.90567021     0.14700
C1731       C  0.94139654  0.71758144  0.93515222    -0.31900
H1732       H  0.94446350  0.73579829  0.96134543     0.16600
C1733       C  0.04451629  0.98740718  0.86255934    -0.30800
N1734       N  0.07331097  0.98511933  0.89143017     0.13400
C1735       C  0.06249759  0.99133922  0.92732863    -0.30800
C1736       C  0.95798046  0.91747305  0.88627124    -0.31100
N1737       N  0.93691240  0.91416697  0.91330711     0.13900
H1738       H  0.95729708  0.89908841  0.86099327     0.16500
C1739       C  0.95162138  0.93446273  0.94592031    -0.31100
H1740       H  0.94098872  0.93518464  0.97367796     0.16500
H1741       H  0.07999420  0.98599955  0.95530276     0.16500
H1742       H  0.89822165  0.68059582  0.85730684     0.16600
H1743       H  0.04467501  0.98016241  0.83141629     0.16500
O1744       O  0.96126869  0.78323920  0.80541818    -0.80500
O1745       O  0.80247335  0.78640759  0.81987103    -0.65200
O1746       O  0.89744112  0.80034133  0.80555372    -1.11800
C1747       C  0.90720747  0.89012718  0.90251542     1.06400
O1748       O  0.79467418  0.85113466  0.82426879    -0.78400
O1749       O  0.84975681  0.88264131  0.79719500    -0.66000
Ni1750     Ni  0.92180401  0.75544404  0.81605633     1.34900
C1751       C  0.88013689  0.89416702  0.79358988     0.85100
O1752       O  0.85193989  0.74284003  0.77721030    -0.78900
O1753       O  0.90739797  0.74105233  0.76260096    -0.89200
C1754       C  0.78241704  0.81736794  0.81805556     0.84700
O1755       O  0.92722039  0.76891401  0.87004112    -0.67400
O1756       O  0.87892842  0.90295472  0.87930624    -0.86700
C1757       C  0.90184119  0.75191881  0.88179366     0.85500
C1758       C  0.87789662  0.72481247  0.76242163     1.07100
H1759       H  0.85660016  0.81770618  0.87995575     0.38900
O1760       O  0.85976961  0.82783507  0.85418288    -1.09400
O1761       O  0.90636249  0.87819732  0.81717007    -0.66000
Ni1762     Ni  0.90807444  0.83038191  0.85170530     1.26300
O1763       O  0.87038824  0.75378167  0.86005080    -0.66200
O1764       O  0.91558782  0.85535773  0.90172919    -0.78500
C1765       C  0.97079538  0.81506102  0.82171206     0.84900
O1766       O  0.95729129  0.82969769  0.85020581    -0.65700
Ni1767     Ni  0.83700747  0.87554580  0.84971177     1.27400
Ni1768     Ni  0.85233877  0.78881409  0.81401917     1.26100
H1769       H  0.89833938  0.81267392  0.78012766     0.39500
C1770       C  0.88191856  0.93499242  0.77323183     0.30400
C1771       C  0.87919515  0.68012455  0.76034285     0.30400
C1772       C  0.91077250  0.95796112  0.79781660    -0.05800
C1773       C  0.88845708  0.94776476  0.72995375    -0.06600
C1774       C  0.84652606  0.95697279  0.77670657    -0.06500
C1775       C  0.90983016  0.66378763  0.79147353    -0.05800
C1776       C  0.88523879  0.65574624  0.72308363    -0.06600
C1777       C  0.84617171  0.66306481  0.77182008    -0.06500
C1778       C  0.94420786  0.67560654  0.80505600    -0.31800
N1779       N  0.96427826  0.97963755  0.82422620     0.14700
C1780       C  0.94616078  0.94870806  0.80973879    -0.31900
H1781       H  0.95886495  0.92149115  0.80445081     0.16600
C1782       C  0.90928353  0.66473292  0.69829705    -0.30800
N1783       N  0.92865642  0.96663049  0.69090783     0.13400
C1784       C  0.91710831  0.93653211  0.71059816    -0.29600
C1785       C  0.81144277  0.67485355  0.76057368    -0.31100
N1786       N  0.79000489  0.97808155  0.75945244     0.13900
H1787       H  0.80234607  0.70331108  0.75024770     0.16500
C1788       C  0.81088657  0.94632575  0.76726958    -0.31100
H1789       H  0.80074297  0.91779160  0.76339576     0.16500
H1790       H  0.93250281  0.91014578  0.71705535     0.16500
H1791       H  0.95273451  0.70475912  0.80666822     0.16600
H1792       H  0.91774180  0.69353520  0.69395937     0.16500
C1793       C  0.05648961  0.99939253  0.70549718     0.30400
C1794       C  0.03729029  0.67025729  0.62499370     0.30400
C1795       C  0.07722701  0.97314333  0.68128132    -0.05800
C1796       C  0.01810749  0.99158170  0.69133286    -0.06600
C1797       C  0.06425086  0.70373316  0.68728985    -0.06500
C1798       C  0.06629881  0.97145137  0.64032637    -0.05800
C1799       C  0.00712885  0.99259421  0.65026432    -0.06600
C1800       C  0.05277112  0.70852335  0.64604148    -0.06500
C1801       C  0.09488333  0.95212806  0.62632552    -0.31800
N1802       N  0.12381175  0.94961104  0.65622410     0.14700
C1803       C  0.11339729  0.96846106  0.68662190    -0.31900
H1804       H  0.13186789  0.97675067  0.71236543     0.16600
C1805       C  0.97251318  0.97799829  0.64569323    -0.30800
N1806       N  0.96363459  0.96992345  0.68234127     0.13400
C1807       C  0.99160812  0.97819512  0.71041333    -0.30800
C1808       C  0.07616252  0.73615631  0.63508056    -0.31100
N1809       N  0.10404076  0.74132962  0.66535719     0.13900
H1810       H  0.07410786  0.74950930  0.60588635     0.16500
C1811       C  0.09717651  0.71957351  0.69507979    -0.31100
H1812       H  0.11685589  0.71510580  0.72125124     0.16500
H1813       H  0.99231386  0.97536975  0.74245406     0.16500
H1814       H  0.09538059  0.94285295  0.59583753     0.16600
H1815       H  0.95490205  0.97220319  0.61820679     0.16500
O1816       O  0.06917519  0.81689128  0.75946325    -0.80500
O1817       O  0.22593089  0.78865233  0.74247853    -0.65200
O1818       O  0.13381400  0.81989240  0.76034802    -1.11800
C1819       C  0.14283683  0.91564244  0.67217510     1.06400
O1820       O  0.23552494  0.84786499  0.76532436    -0.78400
O1821       O  0.18375000  0.89219968  0.78206066    -0.66000
Ni1822     Ni  0.10480204  0.78090415  0.74708379     1.34900
C1823       C  0.15412023  0.90941466  0.78038836     0.85100
O1824       O  0.17432750  0.75406395  0.78450050    -0.78900
O1825       O  0.11911014  0.75896680  0.79960363    -0.89200
C1826       C  0.24733887  0.81616530  0.75324345     0.84700
O1827       O  0.10017070  0.79901545  0.69400907    -0.67400
O1828       O  0.17184256  0.91911746  0.69788680    -0.86700
C1829       C  0.12125421  0.77527166  0.68127852     0.85500
C1830       C  0.14894044  0.74003116  0.80156146     1.07100
H1831       H  0.17898942  0.83518972  0.68903462     0.38900
O1832       O  0.17510846  0.84286368  0.71556416    -1.09400
O1833       O  0.13013508  0.89905543  0.75229530    -0.66000
Ni1834     Ni  0.12714192  0.85434598  0.71635040     1.26300
O1835       O  0.15366164  0.77142679  0.70120242    -0.66200
O1836       O  0.12477223  0.88578225  0.67072131    -0.78500
C1837       C  0.06145077  0.84977691  0.74245969     0.84900
O1838       O  0.07823964  0.86377616  0.71684970    -0.65700
Ni1839     Ni  0.20389207  0.88299246  0.73310619     1.27400
Ni1840     Ni  0.17711981  0.80012045  0.75017543     1.26100
H1841       H  0.13446006  0.83084008  0.78675913     0.39500
C1842       C  0.15168364  0.94993993  0.80044471     0.30400
C1843       C  0.15045502  0.69556904  0.81010179     0.30400
C1844       C  0.11901839  0.97225234  0.78011141    -0.05800
C1845       C  0.14941873  0.96385268  0.84473064    -0.06600
C1846       C  0.18393284  0.97115125  0.79080097    -0.06500
C1847       C  0.11830885  0.67798809  0.78474633    -0.05800
C1848       C  0.14972571  0.67244651  0.84981724    -0.06600
C1849       C  0.18303180  0.67723354  0.79514712    -0.06500
C1850       C  0.08382358  0.69031139  0.77080438    -0.31800
N1851       N  0.06718005  0.99498758  0.74933160     0.14700
C1852       C  0.08537416  0.96262634  0.76302055    -0.31900
H1853       H  0.07715700  0.93452202  0.75316630     0.16600
C1854       C  0.12550131  0.68122048  0.87525926    -0.30800
N1855       N  0.10891924  0.98283143  0.88426131     0.13400
C1856       C  0.12316322  0.95238239  0.86651056    -0.30800
C1857       C  0.21813370  0.68777159  0.80300085    -0.31100
N1858       N  0.24014207  0.99008612  0.80211513     0.13900
H1859       H  0.22723129  0.71576321  0.81290521     0.16500
C1860       C  0.21985343  0.95934152  0.79618267    -0.31100
H1861       H  0.23113763  0.93060529  0.79966839     0.16500
H1862       H  0.10990688  0.92541515  0.86174056     0.16500
H1863       H  0.07389226  0.71965227  0.76868148     0.16600
H1864       H  0.11427831  0.70978619  0.87808213     0.16500
C1865       C  0.53715114  0.84111012  0.61781334     0.30400
C1866       C  0.55609777  0.83160810  0.69825966     0.30400
C1867       C  0.56198220  0.87288783  0.63849623    -0.05800
C1868       C  0.50581554  0.84142877  0.64403988    -0.06600
C1869       C  0.56035600  0.80415506  0.63170994    -0.06500
C1870       C  0.57420259  0.86400319  0.67856966    -0.05800
C1871       C  0.51669545  0.83812773  0.68561562    -0.06600
C1872       C  0.56299141  0.79716055  0.67261911    -0.06500
C1873       C  0.61010665  0.87125649  0.68385799    -0.31800
N1874       N  0.61765970  0.89690192  0.65740373     0.14700
C1875       C  0.58893897  0.89553528  0.62733466    -0.31900
H1876       H  0.58905789  0.90789298  0.59805284     0.16600
C1877       C  0.48899827  0.82404212  0.70253580    -0.30800
N1878       N  0.46057456  0.81982596  0.67365571     0.13400
C1879       C  0.47007319  0.83056303  0.63789967    -0.30800
C1880       C  0.58948559  0.77224830  0.68255004    -0.31100
N1881       N  0.61046358  0.76924927  0.65521938     0.13900
H1882       H  0.58772037  0.75072128  0.70397605     0.16500
C1883       C  0.59240001  0.78736934  0.62183401    -0.31100
H1884       H  0.60204745  0.78968887  0.59350277     0.16500
H1885       H  0.45304095  0.82840779  0.60920049     0.16500
H1886       H  0.63019045  0.86073637  0.70751048     0.16600
H1887       H  0.48995375  0.81592140  0.73362628     0.16500
O1888       O  0.57291750  0.97213558  0.75447715    -0.80500
O1889       O  0.73123769  0.95406355  0.74359638    -0.65200
O1890       O  0.63703573  0.97934139  0.75627286    -1.11800
C1891       C  0.63791804  0.74045193  0.66499306     1.06400
O1892       O  0.74046474  0.68404783  0.75355261    -0.78400
O1893       O  0.68554841  0.72251766  0.77445424    -0.66000
Ni1894     Ni  0.61059844  0.93786522  0.74463111     1.34900
C1895       C  0.65513220  0.73753967  0.77471376     0.85100
O1896       O  0.68026948  0.91672371  0.78430134    -0.78900
O1897       O  0.62469061  0.92088316  0.79831452    -0.89200
C1898       C  0.75202698  0.98272637  0.75110739     0.84700
O1899       O  0.60600858  0.95177378  0.69047007    -0.67400
O1900       O  0.66557597  0.74825512  0.69103834    -0.86700
C1901       C  0.63019991  0.93082717  0.67908825     0.85500
C1902       C  0.65427183  0.90200820  0.79985154     1.07100
H1903       H  0.68235333  0.99478829  0.68571372     0.38900
O1904       O  0.67799101  0.67046349  0.71163048    -1.09400
O1905       O  0.63072627  0.72460594  0.74808832    -0.66000
Ni1906     Ni  0.62971827  0.67865296  0.71126675     1.26300
O1907       O  0.66195294  0.93002220  0.70077959    -0.66200
O1908       O  0.62671196  0.70699270  0.66291123    -0.78500
C1909       C  0.56445007  0.00431774  0.73658055     0.84900
O1910       O  0.58027843  0.68410689  0.70974177    -0.65700
Ni1911     Ni  0.70291465  0.71477594  0.72384953     1.27400
Ni1912     Ni  0.68171424  0.96239106  0.74864935     1.26100
H1913       H  0.63646627  0.99127191  0.78204104     0.39500
C1914       C  0.65225497  0.77887313  0.79444838     0.30400
C1915       C  0.65393044  0.85758584  0.80488435     0.30400
C1916       C  0.62250171  0.80294667  0.76975362    -0.05800
C1917       C  0.64571042  0.79337080  0.83756896    -0.06600
C1918       C  0.68742134  0.79864992  0.79017670    -0.06500
C1919       C  0.62343590  0.84215072  0.77464140    -0.05800
C1920       C  0.64815347  0.83482318  0.84303788    -0.06600
C1921       C  0.68749768  0.83811040  0.79408137    -0.06500
C1922       C  0.58904145  0.85620486  0.76123261    -0.31800
N1923       N  0.56892762  0.82815475  0.74263229     0.14700
C1924       C  0.58671267  0.79616956  0.75862511    -0.31900
H1925       H  0.57455238  0.76875837  0.75977973     0.16600
C1926       C  0.62366074  0.84596297  0.86727239    -0.30800
N1927       N  0.60479721  0.81584162  0.87580330     0.13400
C1928       C  0.61713301  0.78441905  0.85735576    -0.30800
C1929       C  0.72248893  0.84786088  0.80518295    -0.31100
N1930       N  0.74422448  0.81630452  0.80718681     0.13900
H1931       H  0.73136676  0.87597278  0.81490316     0.16500
C1932       C  0.72322639  0.78593314  0.79986293    -0.31100
H1933       H  0.73342119  0.75687193  0.80504703     0.16500
H1934       H  0.60220521  0.75857267  0.85194567     0.16500
H1935       H  0.58071583  0.88600209  0.75852252     0.16600
H1936       H  0.61457702  0.87536048  0.87027847     0.16500
C1937       C  0.49229902  0.83412047  0.93990213     0.30400
C1938       C  0.47329155  0.82265243  0.85990106     0.30400
C1939       C  0.46180525  0.86087874  0.91968867    -0.05800
C1940       C  0.52237828  0.83950973  0.91322710    -0.06600
C1941       C  0.47649955  0.79398770  0.92648226    -0.06500
C1942       C  0.44997058  0.85138014  0.88062327    -0.05800
C1943       C  0.51124458  0.83565050  0.87139508    -0.06600
C1944       C  0.47545771  0.78606609  0.88551016    -0.06500
C1945       C  0.41441564  0.86226619  0.87435152    -0.31800
N1946       N  0.40807639  0.89022783  0.89998947     0.14700
C1947       C  0.43668845  0.88737716  0.93021536    -0.31900
H1948       H  0.43904852  0.90349498  0.95784735     0.16600
C1949       C  0.54063509  0.82396982  0.85462680    -0.30800
N1950       N  0.56943868  0.82121742  0.88353786     0.13400
C1951       C  0.55889173  0.83004826  0.91935950    -0.30800
C1952       C  0.45333561  0.75740310  0.87672557    -0.31100
N1953       N  0.43026983  0.75688034  0.90190171     0.13900
H1954       H  0.45367029  0.73782548  0.85248373     0.16500
C1955       C  0.44443242  0.77760496  0.93436469    -0.31100
H1956       H  0.43122152  0.78350931  0.95992120     0.16500
H1957       H  0.57595087  0.82754946  0.94811315     0.16500
H1958       H  0.39468201  0.85465703  0.84959571     0.16600
H1959       H  0.54053723  0.81558782  0.82373243     0.16500
O1960       O  0.45583670  0.95428530  0.79982264    -0.80500
O1961       O  0.29800952  0.96008888  0.81467855    -0.65200
O1962       O  0.39259008  0.97224021  0.79929940    -1.11800
C1963       C  0.40083354  0.73280383  0.89092057     1.06400
O1964       O  0.29073427  0.69162729  0.80976039    -0.78400
O1965       O  0.34784114  0.71874660  0.78367913    -0.66000
Ni1966     Ni  0.41628901  0.92747127  0.81111867     1.34900
C1967       C  0.37789271  0.73184253  0.78171342     0.85100
O1968       O  0.34651714  0.91403274  0.77309453    -0.78900
O1969       O  0.40155845  0.91303358  0.75764576    -0.89200
C1970       C  0.27825124  0.99123795  0.80963157     0.84700
O1971       O  0.42245858  0.94172065  0.86519226    -0.67400
O1972       O  0.37345453  0.74482788  0.86572120    -0.86700
C1973       C  0.39731986  0.92468403  0.87735959     0.85500
C1974       C  0.37213317  0.89668886  0.75721173     1.07100
H1975       H  0.35077008  0.99406635  0.87203791     0.38900
O1976       O  0.35463051  0.66902683  0.84580289    -1.09400
O1977       O  0.40321648  0.71726657  0.80754446    -0.66000
Ni1978     Ni  0.40312146  0.67068355  0.84390323     1.26300
O1979       O  0.36559815  0.92738594  0.85603435    -0.66200
O1980       O  0.40949171  0.69798668  0.89236457    -0.78500
C1981       C  0.46584260  0.98628325  0.81517897     0.84900
O1982       O  0.45257796  0.66890570  0.84317497    -0.65700
Ni1983     Ni  0.33236672  0.71664382  0.83560911     1.27400
Ni1984     Ni  0.34751885  0.96128734  0.80831288     1.26100
H1985       H  0.39339239  0.98362931  0.77337163     0.39500
C1986       C  0.37899355  0.77335988  0.76214984     0.30400
C1987       C  0.37371209  0.85233655  0.75291522     0.30400
C1988       C  0.40675713  0.79643948  0.78838313    -0.05800
C1989       C  0.38620523  0.78894993  0.71965192    -0.06600
C1990       C  0.34263524  0.79369387  0.76549901    -0.06500
C1991       C  0.40458445  0.83577002  0.78372882    -0.05800
C1992       C  0.38123560  0.83037156  0.71476256    -0.06600
C1993       C  0.34095918  0.83319350  0.76267611    -0.06500
C1994       C  0.43872869  0.84835766  0.79747856    -0.31800
N1995       N  0.45967813  0.81943735  0.81586625     0.14700
C1996       C  0.44241229  0.78813380  0.80063294    -0.31900
H1997       H  0.45576522  0.76111346  0.79596209     0.16600
C1998       C  0.40464565  0.84256954  0.69049508    -0.30800
N1999       N  0.42577577  0.81315063  0.68171799     0.13400
C2000       C  0.41587757  0.78117003  0.70023544    -0.30800
C2001       C  0.30561284  0.84429777  0.75528660    -0.31100
N2002       N  0.28520171  0.81318986  0.75433793     0.13900
H2003       H  0.29513832  0.87318463  0.74897959     0.16500
C2004       C  0.30716643  0.78197551  0.75848023    -0.31100
H2005       H  0.29748218  0.75324683  0.75499143     0.16500
H2006       H  0.43276821  0.75565599  0.70569406     0.16500
H2007       H  0.44665507  0.87766373  0.79983417     0.16600
H2008       H  0.41137494  0.87221806  0.68756081     0.16500
C2009       C  0.54393650  0.03606084  0.79098691    -0.25900
C2010       C  0.53746893  0.02832475  0.74979048    -0.14000
C2011       C  0.50283821  0.02363259  0.73007477     0.36600
C2012       C  0.47810672  0.01239566  0.75315652    -0.25400
C2013       C  0.48817830  0.00847013  0.79474490    -0.14600
C2014       C  0.51928784  0.02461498  0.81452975     0.37700
N2015       N  0.52713255  0.02552993  0.85757754    -0.88900
H2016       H  0.57060723  0.04246497  0.80530401     0.18800
H2017       H  0.45229592  0.00339220  0.73848092     0.18800
N2018       N  0.49412426  0.02321234  0.68711160    -0.87900
H2019       H  0.55140954  0.03851213  0.86684081     0.36200
H2020       H  0.53017098  0.99722455  0.86789809     0.41300
H2021       H  0.51567464  0.03228812  0.67425942     0.40900
H2022       H  0.47379634  0.04382560  0.67898885     0.35800
C2023       C  0.50158204  0.80625765  0.51066095    -0.25900
C2024       C  0.50371292  0.83830594  0.98594507    -0.14000
C2025       C  0.51659317  0.87251705  0.50545457     0.36600
C2026       C  0.52625736  0.87317736  0.54779648    -0.25400
C2027       C  0.52375910  0.84081149  0.57210770    -0.14600
C2028       C  0.50911814  0.80734757  0.55247087     0.37700
N2029       N  0.50177591  0.77299283  0.57302503    -0.88900
H2030       H  0.49352628  0.77894061  0.49803548     0.18800
H2031       H  0.53511031  0.89979993  0.56161379     0.18800
N2032       N  0.52045710  0.90721260  0.48387179    -0.87900
H2033       H  0.47493619  0.76721747  0.56399397     0.36200
H2034       H  0.50421892  0.77601709  0.60386377     0.41300
H2035       H  0.51315377  0.90408891  0.95305175     0.40900
H2036       H  0.54745698  0.91340980  0.48854951     0.35800
C2037       C  0.97853999  0.84474856  0.75983663    -0.25900
C2038       C  0.99106940  0.83972310  0.80097919    -0.14000
C2039       C  0.01976952  0.86113764  0.82002128     0.36600
C2040       C  0.03936767  0.88052997  0.79554486    -0.25400
C2041       C  0.03321576  0.87300188  0.75438644    -0.14600
C2042       C  0.99955406  0.86277359  0.73603390     0.37700
N2043       N  0.98976532  0.86482540  0.69316611    -0.88900
H2044       H  0.95385450  0.83234352  0.74602285     0.18800
H2045       H  0.06452664  0.89206129  0.80909330     0.18800
N2046       N  0.03230298  0.86032936  0.86248462    -0.87900
H2047       H  0.96400389  0.85511715  0.68458483     0.36200
H2048       H  0.00668064  0.84616568  0.68023326     0.41300
H2049       H  0.01759839  0.84250910  0.87783686     0.40900
H2050       H  0.02948452  0.88810843  0.87337193     0.35800
C2051       C  0.03851323  0.01472334  0.51046277    -0.25900
C2052       C  0.00392120  0.67101435  0.49381590    -0.14000
C2053       C  0.97882994  0.67014370  0.52109136     0.36600
C2054       C  0.99065071  0.67448245  0.56217724    -0.25400
C2055       C  0.02676415  0.67393161  0.57900924    -0.14600
C2056       C  0.05114308  0.01308877  0.55172724     0.37700
N2057       N  0.08851544  0.01901256  0.56350128    -0.88900
H2058       H  0.05656534  0.02493224  0.49186137     0.18800
H2059       H  0.97061205  0.68008682  0.58052186     0.18800
N2060       N  0.94105442  0.66659161  0.00964587    -0.87900
H2061       H  0.10243648  0.99732910  0.55054042     0.36200
H2062       H  0.09667893  0.01676586  0.59413229     0.41300
H2063       H  0.93310979  0.66319174  0.97920505     0.40900
H2064       H  0.92860155  0.69194378  0.51755901     0.35800
loop_ 
_geom_bond_atom_site_label_1 
_geom_bond_atom_site_label_2 
_geom_bond_distance 
_geom_bond_site_symmetry_2 
_ccdc_geom_bond_type 
C1            C3   1.532   1_565  S
C1            C4   1.593   1_665  S
C1         C1381   1.586       .  S
C1          C676   1.550   1_665  S
C2            C8   1.538       .  S
C2            C7   1.519   1_655  S
C2          C694   1.543       .  S
C2           N59   1.499       .  S
C3           C11   1.391       .  A
C3            C6   1.358       .  A
C4         C1391   1.410   1_545  A
C4         C1383   1.416   1_545  A
C5          C689   1.586       .  S
C5           C19   1.429       .  A
C5            C8   1.415       .  A
C6         C1378   1.543   1_545  S
C6            C9   1.376       .  A
C7           C13   1.382       .  A
C7          C692   1.416       .  A
C8           C16   1.335       .  A
C9           N10   1.345       .  A
C9           H22   1.072       .  S
N10          C11   1.366       .  A
N10          C37   1.427       .  S
C11          H12   1.082       .  S
C13          N14   1.348       .  A
C13          H23   1.082       .  S
N14          C15   1.355       .  A
N14         N135   1.415       .  S
C15         C692   1.410       .  A
C15          H21   1.080       .  S
C16          N17   1.315       .  A
C16          H18   1.065       .  S
N17          C19   1.363       .  A
N17          C27   1.431       .  S
C19          H20   1.078       .  S
O24         Ni30   1.896       .  S
O24          C45   1.277       .  A
O25         Ni48   1.946       .  S
O25          C34   1.300       .  A
O26         Ni30   1.804       .  S
O26         Ni48   1.843       .  S
O26         Ni42   1.875       .  S
O26          H49   0.967       .  S
C27          O44   1.247       .  A
C27          O36   1.296       .  A
O28         Ni47   1.927       .  S
O28          C34   1.287       .  A
O29         Ni47   1.929       .  S
O29          C31   1.261       .  A
Ni30         O33   1.874       .  S
Ni30         O35   1.863       .  S
C31          C50   1.592       .  S
C31          O41   1.288       .  A
O32         Ni48   2.028       .  S
O32          C38   1.319       .  A
O33          C38   1.274       .  A
C34         N210   1.445       .  S
O35          C37   1.266       .  A
O36         Ni47   2.014       .  S
C37          O43   1.303       .  A
C38          C51   1.562       .  S
H39          O40   0.966       .  S
O40         Ni48   1.916       .  S
O40         Ni42   1.861       .  S
O40         Ni47   1.849       .  S
O41         Ni42   2.032       .  S
Ni42         O46   1.884       .  S
Ni42         O44   1.885       .  S
O43         Ni48   2.000       .  S
C45          O46   1.261       .  A
C45         C318   1.429       .  S
C50          C52   1.519       .  S
C50          C54   1.551       .  S
C50          C53   1.588       .  S
C51          C55   1.538   1_545  S
C51          C57   1.513   1_545  S
C51          C56   1.561   1_545  S
C52          C60   1.374       .  A
C52         C743   1.383       .  A
C53          C64   1.404       .  A
C53         C744   1.460       .  A
C54          C68   1.407       .  A
C54         C745   1.386       .  A
C55          C58   1.393   1_565  A
C55        C1428   1.383       .  A
C56          C62   1.378       .  A
C56        C1429   1.460       .  A
C57          C65   1.369   1_565  A
C57        C1430   1.386       .  A
C58        N1435   1.359   1_545  A
C58          H71   1.077       .  S
N59          C60   1.349       .  A
N59         C746   1.359       .  A
C60          H61   1.081       .  S
C62        N1439   1.348       .  A
C62          H72   1.083   1_565  S
N63          C64   1.365       .  A
N63         C750   1.348       .  A
N63          N86   1.416       .  S
C64          H70   1.080       .  S
C65        N1442   1.349   1_545  A
C65          H67   1.082       .  S
N66          C68   1.346       .  A
N66         C753   1.349       .  A
N66         C178   1.434       .  S
C68          H69   1.080       .  S
C73          C75   1.513       .  S
C73          C76   1.499       .  S
C73         C765   1.510       .  S
C73         N131   1.479       .  S
C74          C80   1.598       .  S
C74         C335   1.546       .  S
C74        C1454   1.578   1_545  S
C74        C1455   1.593   1_545  S
C75          C83   1.366       .  A
C75          C78   1.381       .  A
C76          C87   1.375   1_455  A
C76          C79   1.384       .  A
C77        C1449   1.510   1_545  S
C77          C91   1.374       .  A
C77          C80   1.401       .  A
C78         C762   1.578       .  S
C78          C81   1.407       .  A
C79         C762   1.593       .  S
C79          C85   1.415   1_455  A
C80          C88   1.422       .  A
C81          N82   1.373       .  A
C81          H94   1.081       .  S
N82          C83   1.324       .  A
N82          C99   1.431       .  S
C83          H84   1.074       .  S
C85          N86   1.365       .  A
C85          H95   1.079       .  S
N86          C87   1.348       .  A
C87          H93   1.083       .  S
C88          N89   1.369       .  A
C88          H90   1.082       .  S
N89          C91   1.323       .  A
N89         C109   1.435       .  S
C91          H92   1.073       .  S
O96        Ni102   1.915       .  S
O96         C117   1.289       .  A
O97        Ni120   1.948       .  S
O97         C106   1.294       .  A
O98        Ni102   1.792       .  S
O98        Ni120   1.851       .  S
O98        Ni114   1.894       .  S
O98         H121   0.967       .  S
C99         O116   1.264       .  A
C99         O108   1.302       .  A
O100       Ni119   1.908       .  S
O100        C106   1.273       .  A
O101       Ni119   1.951       .  S
O101        C103   1.256       .  A
Ni102       O105   1.924       .  S
Ni102       O107   1.881       .  S
C103        C122   1.574       .  S
C103        O113   1.270       .  A
O104       Ni120   1.999       .  S
O104        C110   1.309       .  A
O105        C110   1.290       .  A
C106        N282   1.438       .  S
O107        C109   1.259       .  A
O108       Ni119   1.987       .  S
C109        O115   1.313       .  A
C110        C123   1.577       .  S
H111        O112   0.967       .  S
O112       Ni120   1.889       .  S
O112       Ni114   1.863       .  S
O112       Ni119   1.846       .  S
O113       Ni114   1.971       .  S
Ni114       O118   1.885       .  S
Ni114       O116   1.882       .  S
O115       Ni120   2.030       .  S
C117        O118   1.262       .  A
C117        C321   1.435       .  S
C122        C124   1.516       .  S
C122        C126   1.533       .  S
C122        C125   1.586       .  S
C123        C127   1.525       .  S
C123        C129   1.534       .  S
C123        C128   1.571       .  S
C124        C132   1.372       .  A
C124        C815   1.373       .  A
C125        C136   1.400       .  A
C125        C816   1.474       .  A
C126        C140   1.401       .  A
C126        C817   1.384       .  A
C127        C130   1.380       .  A
C127       C1500   1.373   1_545  A
C128        C134   1.384       .  A
C128       C1501   1.474   1_545  A
C129        C137   1.383       .  A
C129       C1502   1.384   1_545  A
C130       N1507   1.350   1_545  A
C130        H143   1.080       .  S
N131        C132   1.350       .  A
N131        C818   1.350       .  A
C132        H133   1.076       .  S
C134       N1511   1.351   1_545  A
C134        H144   1.083       .  S
N135        C136   1.360       .  A
N135        C822   1.351       .  A
C136        H142   1.082       .  S
C137       N1514   1.352   1_545  A
C137        H139   1.082       .  S
N138        C140   1.339       .  A
N138        C825   1.352       .  A
N138        C250   1.436       .  S
C140        H141   1.079       .  S
C145        C147   1.571       .  S
C145        C149   1.571       .  S
C145        C148   1.595       .  S
C145        C307   1.547       .  S
C146        C150   1.547       .  S
C146        C152   1.521       .  S
C146        C151   1.505       .  S
C146        N203   1.505       .  S
C147        C155   1.413       .  A
C147        C150   1.392       .  A
C148        C159   1.409       .  A
C148        C151   1.403       .  A
C149        C163   1.424       .  A
C149        C152   1.390       .  A
C150        C153   1.383       .  A
C151        C157   1.381       .  A
C152        C160   1.314       .  A
C153        N154   1.335       .  A
C153        H166   1.072       .  S
N154        C155   1.372       .  A
N154        C181   1.446       .  S
C155        H156   1.080       .  S
C157        N158   1.350       .  A
C157        H167   1.083       .  S
N158        C159   1.370       .  A
N158        N279   1.421       .  S
C159        H165   1.082       .  S
C160        N161   1.315       .  A
C160        H162   1.055       .  S
N161        C163   1.369       .  A
N161        C171   1.429       .  S
C163        H164   1.082       .  S
O168       Ni174   1.910       .  S
O168        C189   1.285       .  A
O169       Ni192   1.935       .  S
O169        C178   1.296       .  A
O170       Ni174   1.798       .  S
O170       Ni192   1.841       .  S
O170       Ni874   1.881       .  S
O170        H193   0.967       .  S
C171        O188   1.255       .  A
C171        O180   1.297       .  A
O172       Ni191   1.913       .  S
O172       C1554   1.282   1_545  A
O173       Ni191   1.943       .  S
O173        C175   1.259       .  A
Ni174       O177   1.898       .  S
Ni174       O179   1.873       .  S
C175        C194   1.597       .  S
C175        O185   1.280       .  A
O176       Ni192   2.007       .  S
O176        C182   1.311       .  A
O177        C182   1.282       .  A
C178        O860   1.282       .  A
O179        C181   1.265       .  A
O180       Ni191   2.005       .  S
C181        O187   1.311       .  A
C182        C195   1.562       .  S
H183        O872   0.967       .  S
O184       Ni186   1.851       .  S
O184       Ni191   1.853       .  S
O184      Ni1568   1.900   1_545  S
O184       H1559   0.967   1_545  S
O185       Ni186   2.026       .  S
Ni186       O190   1.880       .  S
Ni186       O188   1.897       .  S
Ni186      O1546   1.881   1_545  S
O187       Ni192   2.030       .  S
C189        O878   1.259       .  A
C189        C290   1.431       .  S
O190       C1565   1.259       .  A
Ni192       O872   1.900       .  S
C194        C196   1.527       .  S
C194        C198   1.553       .  S
C194        C197   1.595       .  S
C195        C199   1.532       .  S
C195        C201   1.524       .  S
C195        C200   1.563       .  S
C196        C204   1.384       .  A
C196        C199   1.380       .  A
C197        C208   1.408       .  A
C197        C200   1.463       .  A
C198        C212   1.410       .  A
C198        C201   1.384       .  A
C199        C202   1.392       .  A
C200        C206   1.382       .  A
C201        C209   1.380       .  A
C202        N203   1.354       .  A
C202        H215   1.078       .  S
N203        C204   1.356       .  A
C204        H205   1.080       .  S
C206        N207   1.349       .  A
C206        H216   1.083       .  S
N207        C208   1.368       .  A
N207        N230   1.419       .  S
C208        H214   1.082       .  S
C209        N210   1.353       .  A
C209        H211   1.082       .  S
N210        C212   1.348       .  A
C212        H213   1.080       .  S
C217        C219   1.541       .  S
C217        C221   1.580       .  S
C217        C220   1.581       .  S
C217        C304   1.555       .  S
C218        C222   1.557       .  S
C218        C224   1.537       .  S
C218        C223   1.520       .  S
C218        N275   1.501       .  S
C219        C227   1.396       .  A
C219        C222   1.369       .  A
C220        C231   1.403       .  A
C220        C223   1.417       .  A
C221        C235   1.428       .  A
C221        C224   1.405       .  A
C222        C225   1.379       .  A
C223        C229   1.383       .  A
C224        C232   1.332       .  A
C225        N226   1.345       .  A
C225        H238   1.072       .  S
N226        C227   1.372       .  A
N226        C253   1.440       .  S
C227        H228   1.082       .  S
C229        N230   1.350       .  A
C229        H239   1.082       .  S
N230        C231   1.365       .  A
C231        H237   1.082       .  S
C232        N233   1.316       .  A
C232        H234   1.067       .  S
N233        C235   1.361       .  A
N233        C243   1.425       .  S
C235        H236   1.082       .  S
O240       Ni246   1.888       .  S
O240        C261   1.275       .  A
O241       Ni264   1.934       .  S
O241        C250   1.299       .  A
O242       Ni246   1.794       .  S
O242       Ni264   1.843       .  S
O242       Ni946   1.869       .  S
O242        H265   0.967       .  S
C243        O260   1.249       .  A
C243        O252   1.297       .  A
O244       Ni263   1.921       .  S
O244       C1626   1.284   1_545  A
O245       Ni263   1.938       .  S
O245        C247   1.258       .  A
Ni246       O249   1.877       .  S
Ni246       O251   1.872       .  S
C247        C266   1.599       .  S
C247        O257   1.287       .  A
O248       Ni264   2.030       .  S
O248        C254   1.317       .  A
O249        C254   1.272       .  A
C250        O932   1.284       .  A
O251        C253   1.265       .  A
O252       Ni263   2.011       .  S
C253        O259   1.307       .  A
C254        C267   1.555       .  S
H255        O944   0.967       .  S
O256       Ni258   1.862       .  S
O256       Ni263   1.851       .  S
O256      Ni1640   1.909   1_545  S
O256       H1631   0.967   1_545  S
O257       Ni258   2.040       .  S
Ni258       O262   1.888       .  S
Ni258       O260   1.879       .  S
Ni258      O1618   1.869   1_545  S
O259       Ni264   2.019       .  S
C261        O950   1.262       .  A
C261        C293   1.424       .  S
O262       C1637   1.262   1_545  A
Ni264       O944   1.909       .  S
C266        C268   1.519       .  S
C266        C270   1.557       .  S
C266        C269   1.602       .  S
C267        C271   1.541       .  S
C267        C273   1.515       .  S
C267        C272   1.559       .  S
C268        C276   1.378       .  A
C268        C271   1.381       .  A
C269        C280   1.413       .  A
C269        C272   1.459       .  A
C270        C284   1.409       .  A
C270        C273   1.382       .  A
C271        C274   1.395       .  A
C272        C278   1.380       .  A
C273        C281   1.374       .  A
C274        N275   1.356       .  A
C274        H287   1.075       .  S
N275        C276   1.352       .  A
C276        H277   1.081       .  S
C278        N279   1.347       .  A
C278        H288   1.083       .  S
N279        C280   1.372       .  A
C280        H286   1.081       .  S
C281        N282   1.353       .  A
C281        H283   1.082       .  S
N282        C284   1.347       .  A
C284        H285   1.080       .  S
C289        C290   1.401       .  A
C289        C294   1.391       .  A
C289        H296   1.084       .  S
C290        C291   1.396       .  A
C291        C292   1.380       .  A
C291        N298   1.436       .  S
C292        C293   1.402       .  A
C292        H297   1.085       .  S
C293        C294   1.400       .  A
C294        N295   1.437       .  S
N295        H299   1.046       .  S
N295        H300   1.046       .  S
N298        H301   1.045       .  S
N298        H302   1.045       .  S
C303        C308   1.396       .  A
C303        C648   1.409   1_554  A
C303        H310   1.078   1_554  S
C304        C647   1.409       .  A
C304        C649   1.426       .  A
C305        C306   1.419       .  A
C305        C648   1.426   1_554  A
C305        N312   1.438   1_554  S
C306        C307   1.412       .  A
C306        H311   1.079       .  S
C307        C308   1.428       .  A
C308        N309   1.444       .  S
N309        H313   1.046       .  S
N309        H314   1.036       .  S
N312        H316   1.045       .  S
N312        H659   1.040       .  S
H315        N656   1.040       .  S
C317        C318   1.405       .  A
C317        C322   1.386       .  A
C317        H324   1.085       .  S
C318        C319   1.413   1_655  A
C319        C320   1.388       .  A
C319        N326   1.438       .  S
C320        C321   1.398       .  A
C320        H325   1.084       .  S
C321        C322   1.391   1_455  A
C322        N323   1.438       .  S
N323        H327   1.046       .  S
N323        H328   1.045   1_655  S
N326        H329   1.041       .  S
N326        H330   1.045       .  S
C331        C336   1.401       .  A
C331       C1020   1.407   1_554  A
C331        H338   1.071   1_554  S
C332        C345   1.550   1_445  S
C332        C333   1.429   1_456  A
C332       C1707   1.407   1_556  A
C333        C334   1.399       .  A
C333        N684   1.439   1_545  S
C334        C335   1.403   1_655  A
C334        H339   1.070       .  S
C335       C1712   1.426       .  A
C336       C1023   1.426       .  A
C336        N337   1.438       .  S
N337        H341   1.046       .  S
N337        H342   1.034       .  S
N340        C677   1.439   1_565  S
N340        H343   1.032       .  S
N340        H688   1.046   1_565  S
H344        N684   1.046   1_545  S
C345        C347   1.532   1_565  S
C345       C1725   1.586       .  S
C345        C348   1.593   1_665  S
C346       C1038   1.543       .  S
C346        C352   1.538       .  S
C346        C351   1.519   1_655  S
C346        N403   1.499       .  S
C347        C355   1.391       .  A
C347        C350   1.358       .  A
C348       C1735   1.410   1_545  A
C348       C1727   1.416   1_545  A
C349       C1033   1.586       .  S
C349        C363   1.429       .  A
C349        C352   1.415       .  A
C350       C1722   1.543   1_545  S
C350        C353   1.376       .  A
C351       C1036   1.416       .  A
C351        C357   1.382       .  A
C352        C360   1.335       .  A
C353        N354   1.345       .  A
C353        H366   1.072       .  S
N354        C355   1.366       .  A
N354        C381   1.427       .  S
C355        H356   1.082       .  S
C357        N358   1.348       .  A
C357        H367   1.082       .  S
N358        C359   1.355       .  A
N358        N479   1.415       .  S
C359       C1036   1.410       .  A
C359        H365   1.080       .  S
C360        N361   1.315       .  A
C360        H362   1.065       .  S
N361        C363   1.363       .  A
N361        C371   1.431       .  S
C363        H364   1.078       .  S
O368       Ni374   1.896       .  S
O368        C389   1.277       .  A
O369       Ni392   1.946       .  S
O369        C378   1.300       .  A
O370       Ni374   1.804       .  S
O370       Ni392   1.843       .  S
O370       Ni386   1.875       .  S
O370        H393   0.967       .  S
C371        O388   1.247       .  A
C371        O380   1.296       .  A
O372       Ni391   1.927       .  S
O372        C378   1.287       .  A
O373       Ni391   1.929       .  S
O373        C375   1.261       .  A
Ni374       O377   1.874       .  S
Ni374       O379   1.863       .  S
C375        C394   1.592       .  S
C375        O385   1.288       .  A
O376       Ni392   2.028       .  S
O376        C382   1.319       .  A
O377        C382   1.274       .  A
C378        N554   1.445       .  S
O379        C381   1.266       .  A
O380       Ni391   2.014       .  S
C381        O387   1.303       .  A
C382        C395   1.562       .  S
H383        O384   0.966       .  S
O384       Ni392   1.916       .  S
O384       Ni386   1.861       .  S
O384       Ni391   1.849       .  S
O385       Ni386   2.032       .  S
Ni386       O390   1.884       .  S
Ni386       O388   1.885       .  S
O387       Ni392   2.000       .  S
C389        O390   1.261       .  A
C389        C662   1.429       .  S
C394        C396   1.519       .  S
C394        C398   1.551       .  S
C394        C397   1.588       .  S
C395        C399   1.538   1_545  S
C395        C401   1.513   1_545  S
C395        C400   1.561   1_545  S
C396        C404   1.374       .  A
C396       C1087   1.383       .  A
C397        C408   1.404       .  A
C397       C1088   1.460       .  A
C398        C412   1.407       .  A
C398       C1089   1.386       .  A
C399       C1772   1.383       .  A
C399        C402   1.393   1_565  A
C400       C1773   1.460       .  A
C400        C406   1.378       .  A
C401       C1774   1.386       .  A
C401        C409   1.369   1_565  A
C402       N1779   1.359   1_545  A
C402        H415   1.077       .  S
N403       C1090   1.359       .  A
N403        C404   1.349       .  A
C404        H405   1.081       .  S
C406       N1783   1.348       .  A
C406        H416   1.083   1_565  S
N407       C1094   1.348       .  A
N407        C408   1.365       .  A
N407        N430   1.416       .  S
C408        H414   1.080       .  S
C409       N1786   1.349   1_545  A
C409        H411   1.082       .  S
N410       C1097   1.349       .  A
N410        C412   1.346       .  A
N410        C522   1.434       .  S
C412        H413   1.080       .  S
C417        C419   1.513       .  S
C417       C1109   1.510       .  S
C417        C420   1.499       .  S
C417        N475   1.479       .  S
C418       C1798   1.578   1_545  S
C418        C424   1.598       .  S
C418       C1799   1.593   1_545  S
C418        C679   1.546       .  S
C419        C427   1.366       .  A
C419        C422   1.381       .  A
C420        C431   1.374   1_455  A
C420        C423   1.384       .  A
C421       C1793   1.510   1_545  S
C421        C435   1.374       .  A
C421        C424   1.401       .  A
C422       C1106   1.578       .  S
C422        C425   1.407       .  A
C423       C1106   1.593       .  S
C423        C429   1.415   1_455  A
C424        C432   1.422       .  A
C425        N426   1.373       .  A
C425        H438   1.081       .  S
N426        C427   1.324       .  A
N426        C443   1.431       .  S
C427        H428   1.074       .  S
C429        N430   1.365       .  A
C429        H439   1.079       .  S
N430        C431   1.348       .  A
C431        H437   1.083       .  S
C432        N433   1.369       .  A
C432        H434   1.082       .  S
N433        C435   1.323       .  A
N433        C453   1.435       .  S
C435        H436   1.073       .  S
O440       Ni446   1.915       .  S
O440        C461   1.289       .  A
O441       Ni464   1.948       .  S
O441        C450   1.294       .  A
O442       Ni446   1.792       .  S
O442       Ni464   1.851       .  S
O442       Ni458   1.894       .  S
O442        H465   0.967       .  S
C443        O460   1.264       .  A
C443        O452   1.302       .  A
O444       Ni463   1.908       .  S
O444        C450   1.273       .  A
O445       Ni463   1.951       .  S
O445        C447   1.256       .  A
Ni446       O449   1.924       .  S
Ni446       O451   1.881       .  S
C447        C466   1.574       .  S
C447        O457   1.270       .  A
O448       Ni464   1.999       .  S
O448        C454   1.309       .  A
O449        C454   1.290       .  A
C450        N626   1.438       .  S
O451        C453   1.259       .  A
O452       Ni463   1.987       .  S
C453        O459   1.313       .  A
C454        C467   1.577       .  S
H455        O456   0.967       .  S
O456       Ni464   1.889       .  S
O456       Ni458   1.863       .  S
O456       Ni463   1.846       .  S
O457       Ni458   1.971       .  S
Ni458       O462   1.885       .  S
Ni458       O460   1.882       .  S
O459       Ni464   2.030       .  S
C461        O462   1.262       .  A
C461        C665   1.435       .  S
C466        C468   1.516       .  S
C466        C470   1.533       .  S
C466        C469   1.586       .  S
C467        C471   1.525       .  S
C467        C473   1.534       .  S
C467        C472   1.571       .  S
C468        C476   1.372       .  A
C468       C1159   1.373       .  A
C469        C480   1.400       .  A
C469       C1160   1.474       .  A
C470        C484   1.401       .  A
C470       C1161   1.384       .  A
C471       C1844   1.373   1_545  A
C471        C474   1.380       .  A
C472       C1845   1.474   1_545  A
C472        C478   1.384       .  A
C473       C1846   1.384   1_545  A
C473        C481   1.383       .  A
C474       N1851   1.350   1_545  A
C474        H487   1.080       .  S
N475       C1162   1.350       .  A
N475        C476   1.350       .  A
C476        H477   1.076       .  S
C478       N1855   1.351   1_545  A
C478        H488   1.083       .  S
N479       C1166   1.351       .  A
N479        C480   1.360       .  A
C480        H486   1.082       .  S
C481       N1858   1.352   1_545  A
C481        H483   1.082       .  S
N482       C1169   1.352       .  A
N482        C484   1.339       .  A
N482        C594   1.436       .  S
C484        H485   1.079       .  S
C489        C491   1.571       .  S
C489        C493   1.571       .  S
C489        C492   1.595       .  S
C489        C651   1.547       .  S
C490        C494   1.547       .  S
C490        C496   1.521       .  S
C490        C495   1.505       .  S
C490        N547   1.505       .  S
C491        C499   1.413       .  A
C491        C494   1.392       .  A
C492        C503   1.409       .  A
C492        C495   1.403       .  A
C493        C507   1.424       .  A
C493        C496   1.390       .  A
C494        C497   1.383       .  A
C495        C501   1.381       .  A
C496        C504   1.314       .  A
C497        N498   1.335       .  A
C497        H510   1.072       .  S
N498        C499   1.372       .  A
N498        C525   1.446       .  S
C499        H500   1.080       .  S
C501        N502   1.350       .  A
C501        H511   1.083       .  S
N502        C503   1.370       .  A
N502        N623   1.421       .  S
C503        H509   1.082       .  S
C504        N505   1.315       .  A
C504        H506   1.055       .  S
N505        C507   1.369       .  A
N505        C515   1.429       .  S
C507        H508   1.082       .  S
O512       Ni518   1.910       .  S
O512        C533   1.285       .  A
O513       Ni536   1.935       .  S
O513        C522   1.296       .  A
O514       Ni518   1.798       .  S
O514       Ni536   1.841       .  S
O514      Ni1218   1.881       .  S
O514        H537   0.967       .  S
C515        O532   1.255       .  A
C515        O524   1.297       .  A
O516       Ni535   1.913       .  S
O516       C1898   1.282   1_545  A
O517       Ni535   1.943       .  S
O517        C519   1.259       .  A
Ni518       O521   1.898       .  S
Ni518       O523   1.873       .  S
C519        C538   1.597       .  S
C519        O529   1.280       .  A
O520       Ni536   2.007       .  S
O520        C526   1.311       .  A
O521        C526   1.282       .  A
C522       O1204   1.282       .  A
O523        C525   1.265       .  A
O524       Ni535   2.005       .  S
C525        O531   1.311       .  A
C526        C539   1.561       .  S
H527       O1216   0.967       .  S
O528      Ni1912   1.900   1_545  S
O528       Ni530   1.851       .  S
O528       Ni535   1.853       .  S
O528       H1903   0.967   1_545  S
O529       Ni530   2.026       .  S
Ni530       O534   1.880       .  S
Ni530       O532   1.897       .  S
Ni530      O1890   1.881   1_545  S
O531       Ni536   2.030       .  S
C533       O1222   1.259       .  A
C533        C634   1.431       .  S
O534       C1909   1.259       .  A
Ni536      O1216   1.900       .  S
C538        C540   1.527       .  S
C538        C542   1.553       .  S
C538        C541   1.595       .  S
C539        C543   1.532       .  S
C539        C545   1.524       .  S
C539        C544   1.563       .  S
C540        C548   1.384       .  A
C540        C543   1.380       .  A
C541        C552   1.408       .  A
C541        C544   1.463       .  A
C542        C556   1.410       .  A
C542        C545   1.384       .  A
C543        C546   1.392       .  A
C544        C550   1.382       .  A
C545        C553   1.380       .  A
C546        N547   1.354       .  A
C546        H559   1.078       .  S
N547        C548   1.356       .  A
C548        H549   1.080       .  S
C550        N551   1.349       .  A
C550        H560   1.083       .  S
N551        C552   1.368       .  A
N551        N574   1.419       .  S
C552        H558   1.082       .  S
C553        N554   1.353       .  A
C553        H555   1.082       .  S
N554        C556   1.348       .  A
C556        H557   1.080       .  S
C561        C563   1.541       .  S
C561        C565   1.580       .  S
C561        C564   1.581       .  S
C561        C648   1.555       .  S
C562        C566   1.557       .  S
C562        C568   1.537       .  S
C562        C567   1.521       .  S
C562        N619   1.501       .  S
C563        C571   1.396       .  A
C563        C566   1.369       .  A
C564        C575   1.403       .  A
C564        C567   1.417       .  A
C565        C579   1.428       .  A
C565        C568   1.405       .  A
C566        C569   1.379       .  A
C567        C573   1.383       .  A
C568        C576   1.332       .  A
C569        N570   1.345       .  A
C569        H582   1.072       .  S
N570        C571   1.372       .  A
N570        C597   1.440       .  S
C571        H572   1.082       .  S
C573        N574   1.350       .  A
C573        H583   1.082       .  S
N574        C575   1.365       .  A
C575        H581   1.082       .  S
C576        N577   1.316       .  A
C576        H578   1.067       .  S
N577        C579   1.361       .  A
N577        C587   1.425       .  S
C579        H580   1.082       .  S
O584       Ni590   1.888       .  S
O584        C605   1.275       .  A
O585       Ni608   1.934       .  S
O585        C594   1.299       .  A
O586       Ni590   1.794       .  S
O586       Ni608   1.843       .  S
O586      Ni1290   1.869       .  S
O586        H609   0.967       .  S
C587        O604   1.249       .  A
C587        O596   1.297       .  A
O588       Ni607   1.921       .  S
O588       C1970   1.284   1_545  A
O589       Ni607   1.938       .  S
O589        C591   1.258       .  A
Ni590       O593   1.877       .  S
Ni590       O595   1.872       .  S
C591        C610   1.599       .  S
C591        O601   1.287       .  A
O592       Ni608   2.030       .  S
O592        C598   1.317       .  A
O593        C598   1.272       .  A
C594       O1276   1.284       .  A
O595        C597   1.265       .  A
O596       Ni607   2.011       .  S
C597        O603   1.307       .  A
C598        C611   1.555       .  S
H599       O1288   0.967       .  S
O600      Ni1984   1.909   1_545  S
O600       Ni602   1.862       .  S
O600       Ni607   1.851       .  S
O600       H1975   0.967   1_545  S
O601       Ni602   2.040       .  S
Ni602       O606   1.888       .  S
Ni602       O604   1.879       .  S
Ni602      O1962   1.869   1_545  S
O603       Ni608   2.019       .  S
C605       O1294   1.262       .  A
C605        C637   1.425       .  S
O606       C1981   1.262   1_545  A
Ni608      O1288   1.909       .  S
C610        C612   1.519       .  S
C610        C614   1.557       .  S
C610        C613   1.602       .  S
C611        C615   1.541       .  S
C611        C617   1.515       .  S
C611        C616   1.559       .  S
C612        C620   1.378       .  A
C612        C615   1.381       .  A
C613        C624   1.413       .  A
C613        C616   1.459       .  A
C614        C628   1.408       .  A
C614        C617   1.382       .  A
C615        C618   1.395       .  A
C616        C622   1.380       .  A
C617        C625   1.374       .  A
C618        N619   1.356       .  A
C618        H631   1.075       .  S
N619        C620   1.352       .  A
C620        H621   1.081       .  S
C622        N623   1.347       .  A
C622        H632   1.083       .  S
N623        C624   1.372       .  A
C624        H630   1.081       .  S
C625        N626   1.353       .  A
C625        H627   1.082       .  S
N626        C628   1.347       .  A
C628        H629   1.080       .  S
C633        C634   1.401       .  A
C633        C638   1.391       .  A
C633        H640   1.084       .  S
C634        C635   1.396       .  A
C635        C636   1.380       .  A
C635        N642   1.436       .  S
C636        C637   1.402       .  A
C636        H641   1.085       .  S
C637        C638   1.400       .  A
C638        N639   1.437       .  S
N639        H643   1.046       .  S
N639        H644   1.046       .  S
N642        H645   1.045       .  S
N642        H646   1.045       .  S
C647        C652   1.396       .  A
C647        H654   1.078       .  S
C649        C650   1.419       .  A
C649        N656   1.438       .  S
C650        C651   1.412       .  A
C650        H655   1.079       .  S
C651        C652   1.428       .  A
C652        N653   1.444       .  S
N653        H657   1.046       .  S
N653        H658   1.036       .  S
N656        H660   1.045       .  S
C661        C662   1.405       .  A
C661        C666   1.386       .  A
C661        H668   1.085       .  S
C662        C663   1.413   1_655  A
C663        C664   1.388       .  A
C663        N670   1.438       .  S
C664        C665   1.398       .  A
C664        H669   1.084       .  S
C665        C666   1.391   1_455  A
C666        N667   1.438       .  S
N667        H671   1.046       .  S
N667        H672   1.045   1_655  S
N670        H673   1.041       .  S
N670        H674   1.045       .  S
C675       C1364   1.407       .  A
C675        C680   1.401       .  A
C675        H682   1.071       .  S
C676       C2051   1.407       .  A
C676        C677   1.429   1_455  A
C677        C678   1.399       .  A
C678        C679   1.403   1_655  A
C678        H683   1.070       .  S
C679       C2056   1.426       .  A
C680       C1367   1.426       .  A
C680        N681   1.438       .  S
N681        H685   1.046       .  S
N681        H686   1.034       .  S
N684        H687   1.032   1_554  S
C689        C691   1.532       .  S
C689        C692   1.593   1_655  S
C689       C1364   1.550   1_655  S
C690       C1382   1.543       .  S
C690        C696   1.538       .  S
C690        C695   1.519   1_655  S
C690        N747   1.499       .  S
C691        C699   1.391       .  A
C691        C694   1.358       .  A
C693       C1377   1.586       .  S
C693        C707   1.429       .  A
C693        C696   1.415       .  A
C694        C697   1.376       .  A
C695       C1380   1.416       .  A
C695        C701   1.382       .  A
C696        C704   1.335       .  A
C697        N698   1.345       .  A
C697        H710   1.072       .  S
N698        C699   1.366       .  A
N698        C725   1.427       .  S
C699        H700   1.082       .  S
C701        N702   1.348       .  A
C701        H711   1.082       .  S
N702        C703   1.355       .  A
N702        N823   1.415       .  S
C703       C1380   1.410       .  A
C703        H709   1.080       .  S
C704        N705   1.315       .  A
C704        H706   1.065       .  S
N705        C707   1.363       .  A
N705        C715   1.431       .  S
C707        H708   1.078       .  S
O712       Ni718   1.896       .  S
O712        C733   1.277       .  A
O713       Ni736   1.946       .  S
O713        C722   1.300       .  A
O714       Ni718   1.804       .  S
O714       Ni736   1.843       .  S
O714       Ni730   1.875       .  S
O714        H737   0.967       .  S
C715        O732   1.247       .  A
C715        O724   1.296       .  A
O716       Ni735   1.927       .  S
O716        C722   1.287       .  A
O717       Ni735   1.929       .  S
O717        C719   1.261       .  A
Ni718       O721   1.874       .  S
Ni718       O723   1.863       .  S
C719        C738   1.592       .  S
C719        O729   1.288       .  A
O720       Ni736   2.028       .  S
O720        C726   1.319       .  A
O721        C726   1.274       .  A
C722        N898   1.446       .  S
O723        C725   1.266       .  A
O724       Ni735   2.014       .  S
C725        O731   1.303       .  A
C726        C739   1.562       .  S
H727        O728   0.966       .  S
O728       Ni736   1.916       .  S
O728       Ni730   1.861       .  S
O728       Ni735   1.849       .  S
O729       Ni730   2.032       .  S
Ni730       O734   1.884       .  S
Ni730       O732   1.885       .  S
O731       Ni736   2.000       .  S
C733        O734   1.261       .  A
C733       C1006   1.429       .  S
C738        C740   1.519       .  S
C738        C742   1.551       .  S
C738        C741   1.588       .  S
C739        C743   1.538       .  S
C739        C745   1.513       .  S
C739        C744   1.561       .  S
C740        C748   1.374       .  A
C740       C1431   1.383       .  A
C741        C752   1.404       .  A
C741       C1432   1.460       .  A
C742        C756   1.407       .  A
C742       C1433   1.386       .  A
C743        C746   1.393       .  A
C744        C750   1.378       .  A
C745        C753   1.369       .  A
C746        H759   1.077       .  S
N747       C1434   1.359       .  A
N747        C748   1.349       .  A
C748        H749   1.081       .  S
C750        H760   1.083       .  S
N751       C1438   1.348       .  A
N751        C752   1.365       .  A
N751        N774   1.416       .  S
C752        H758   1.080       .  S
C753        H755   1.082       .  S
N754       C1441   1.349       .  A
N754        C756   1.346       .  A
N754        C866   1.434       .  S
C756        H757   1.080       .  S
C761        C763   1.513       .  S
C761       C1453   1.510       .  S
C761        C764   1.499       .  S
C761        N819   1.479       .  S
C762        C768   1.598       .  S
C762       C1023   1.546       .  S
C763        C771   1.366       .  A
C763        C766   1.381       .  A
C764        C775   1.374   1_455  A
C764        C767   1.384       .  A
C765        C779   1.374       .  A
C765        C768   1.401       .  A
C766       C1450   1.578       .  S
C766        C769   1.407       .  A
C767       C1450   1.593       .  S
C767        C773   1.415   1_455  A
C768        C776   1.422       .  A
C769        N770   1.373       .  A
C769        H782   1.081       .  S
N770        C771   1.324       .  A
N770        C787   1.431       .  S
C771        H772   1.074       .  S
C773        N774   1.365       .  A
C773        H783   1.079       .  S
N774        C775   1.348       .  A
C775        H781   1.083       .  S
C776        N777   1.369       .  A
C776        H778   1.082       .  S
N777        C779   1.323       .  A
N777        C797   1.435       .  S
C779        H780   1.073       .  S
O784       Ni790   1.915       .  S
O784        C805   1.289       .  A
O785       Ni808   1.948       .  S
O785        C794   1.294       .  A
O786       Ni790   1.792       .  S
O786       Ni808   1.851       .  S
O786       Ni802   1.894       .  S
O786        H809   0.967       .  S
C787        O804   1.264       .  A
C787        O796   1.302       .  A
O788       Ni807   1.908       .  S
O788        C794   1.273       .  A
O789       Ni807   1.951       .  S
O789        C791   1.256       .  A
Ni790       O793   1.924       .  S
Ni790       O795   1.881       .  S
C791        C810   1.574       .  S
C791        O801   1.270       .  A
O792       Ni808   1.999       .  S
O792        C798   1.309       .  A
O793        C798   1.290       .  A
C794        N970   1.438       .  S
O795        C797   1.259       .  A
O796       Ni807   1.987       .  S
C797        O803   1.313       .  A
C798        C811   1.577       .  S
H799        O800   0.967       .  S
O800       Ni808   1.889       .  S
O800       Ni802   1.863       .  S
O800       Ni807   1.846       .  S
O801       Ni802   1.971       .  S
Ni802       O806   1.885       .  S
Ni802       O804   1.882       .  S
O803       Ni808   2.030       .  S
C805        O806   1.262       .  A
C805       C1009   1.435       .  S
C810        C812   1.516       .  S
C810        C814   1.533       .  S
C810        C813   1.586       .  S
C811        C815   1.525       .  S
C811        C817   1.534       .  S
C811        C816   1.571       .  S
C812        C820   1.372       .  A
C812       C1503   1.373       .  A
C813        C824   1.400       .  A
C813       C1504   1.474       .  A
C814        C828   1.401       .  A
C814       C1505   1.384       .  A
C815        C818   1.380       .  A
C816        C822   1.384       .  A
C817        C825   1.383       .  A
C818        H831   1.080       .  S
N819       C1506   1.350       .  A
N819        C820   1.350       .  A
C820        H821   1.076       .  S
C822        H832   1.083       .  S
N823       C1510   1.351       .  A
N823        C824   1.360       .  A
C824        H830   1.082       .  S
C825        H827   1.082       .  S
N826       C1513   1.352       .  A
N826        C828   1.339       .  A
N826        C938   1.436       .  S
C828        H829   1.079       .  S
C833        C835   1.571       .  S
C833        C837   1.571       .  S
C833        C836   1.595       .  S
C833        C995   1.547       .  S
C834        C838   1.547       .  S
C834        C840   1.521       .  S
C834        C839   1.505       .  S
C834        N891   1.505       .  S
C835        C843   1.413       .  A
C835        C838   1.392       .  A
C836        C847   1.409       .  A
C836        C839   1.403       .  A
C837        C851   1.424       .  A
C837        C840   1.390       .  A
C838        C841   1.383       .  A
C839        C845   1.381       .  A
C840        C848   1.315       .  A
C841        N842   1.335       .  A
C841        H854   1.072       .  S
N842        C843   1.372       .  A
N842        C869   1.446       .  S
C843        H844   1.080       .  S
C845        N846   1.350       .  A
C845        H855   1.083       .  S
N846        C847   1.370       .  A
N846        N967   1.421       .  S
C847        H853   1.082       .  S
C848        N849   1.315       .  A
C848        H850   1.055       .  S
N849        C851   1.369       .  A
N849        C859   1.429       .  S
C851        H852   1.082       .  S
O856       Ni862   1.910       .  S
O856        C877   1.285       .  A
O857       Ni880   1.935       .  S
O857        C866   1.296       .  A
O858       Ni862   1.798       .  S
O858       Ni880   1.841       .  S
O858      Ni1562   1.881       .  S
O858        H881   0.967       .  S
C859        O876   1.255       .  A
C859        O868   1.297       .  A
O860       Ni879   1.913       .  S
O861       Ni879   1.943       .  S
O861        C863   1.259       .  A
Ni862       O865   1.898       .  S
Ni862       O867   1.873       .  S
C863        C882   1.597       .  S
C863        O873   1.280       .  A
O864       Ni880   2.007       .  S
O864        C870   1.311       .  A
O865        C870   1.282       .  A
C866       O1548   1.282       .  A
O867        C869   1.265       .  A
O868       Ni879   2.005       .  S
C869        O875   1.311       .  A
C870        C883   1.561       .  S
H871       O1560   0.967       .  S
O872       Ni874   1.851       .  S
O872       Ni879   1.853       .  S
O873       Ni874   2.026       .  S
Ni874       O878   1.880       .  S
Ni874       O876   1.897       .  S
O875       Ni880   2.030       .  S
C877       O1566   1.259       .  A
C877        C978   1.431       .  S
Ni880      O1560   1.900       .  S
C882        C884   1.527       .  S
C882        C886   1.553       .  S
C882        C885   1.595       .  S
C883        C887   1.532       .  S
C883        C889   1.524       .  S
C883        C888   1.563       .  S
C884        C892   1.384       .  A
C884        C887   1.380       .  A
C885        C896   1.408       .  A
C885        C888   1.463       .  A
C886        C900   1.410       .  A
C886        C889   1.384       .  A
C887        C890   1.392       .  A
C888        C894   1.382       .  A
C889        C897   1.380       .  A
C890        N891   1.354       .  A
C890        H903   1.078       .  S
N891        C892   1.356       .  A
C892        H893   1.080       .  S
C894        N895   1.349       .  A
C894        H904   1.083       .  S
N895        C896   1.368       .  A
N895        N918   1.419       .  S
C896        H902   1.082       .  S
C897        N898   1.353       .  A
C897        H899   1.082       .  S
N898        C900   1.348       .  A
C900        H901   1.080       .  S
C905        C907   1.541       .  S
C905        C909   1.580       .  S
C905        C908   1.581       .  S
C905        C992   1.555       .  S
C906        C910   1.557       .  S
C906        C912   1.537       .  S
C906        C911   1.520       .  S
C906        N963   1.501       .  S
C907        C915   1.396       .  A
C907        C910   1.369       .  A
C908        C919   1.403       .  A
C908        C911   1.417       .  A
C909        C923   1.428       .  A
C909        C912   1.405       .  A
C910        C913   1.379       .  A
C911        C917   1.383       .  A
C912        C920   1.332       .  A
C913        N914   1.345       .  A
C913        H926   1.072       .  S
N914        C915   1.372       .  A
N914        C941   1.440       .  S
C915        H916   1.082       .  S
C917        N918   1.350       .  A
C917        H927   1.082       .  S
N918        C919   1.365       .  A
C919        H925   1.082       .  S
C920        N921   1.316       .  A
C920        H922   1.067       .  S
N921        C923   1.361       .  A
N921        C931   1.425       .  S
C923        H924   1.082       .  S
O928       Ni934   1.888       .  S
O928        C949   1.275       .  A
O929       Ni952   1.934       .  S
O929        C938   1.299       .  A
O930       Ni934   1.794       .  S
O930       Ni952   1.843       .  S
O930      Ni1634   1.869       .  S
O930        H953   0.967       .  S
C931        O948   1.249       .  A
C931        O940   1.297       .  A
O932       Ni951   1.921       .  S
O933       Ni951   1.938       .  S
O933        C935   1.258       .  A
Ni934       O937   1.877       .  S
Ni934       O939   1.872       .  S
C935        C954   1.599       .  S
C935        O945   1.287       .  A
O936       Ni952   2.030       .  S
O936        C942   1.317       .  A
O937        C942   1.272       .  A
C938       O1620   1.284       .  A
O939        C941   1.265       .  A
O940       Ni951   2.011       .  S
C941        O947   1.307       .  A
C942        C955   1.555       .  S
H943       O1632   0.967       .  S
O944       Ni946   1.862       .  S
O944       Ni951   1.851       .  S
O945       Ni946   2.040       .  S
Ni946       O950   1.888       .  S
Ni946       O948   1.879       .  S
O947       Ni952   2.019       .  S
C949       O1638   1.262       .  A
C949        C981   1.424       .  S
Ni952      O1632   1.909       .  S
C954        C956   1.519       .  S
C954        C958   1.557       .  S
C954        C957   1.602       .  S
C955        C959   1.541       .  S
C955        C961   1.515       .  S
C955        C960   1.559       .  S
C956        C964   1.378       .  A
C956        C959   1.381       .  A
C957        C968   1.413       .  A
C957        C960   1.459       .  A
C958        C972   1.409       .  A
C958        C961   1.382       .  A
C959        C962   1.395       .  A
C960        C966   1.380       .  A
C961        C969   1.374       .  A
C962        N963   1.356       .  A
C962        H975   1.075       .  S
N963        C964   1.352       .  A
C964        H965   1.081       .  S
C966        N967   1.347       .  A
C966        H976   1.083       .  S
N967        C968   1.372       .  A
C968        H974   1.081       .  S
C969        N970   1.353       .  A
C969        H971   1.082       .  S
N970        C972   1.347       .  A
C972        H973   1.080       .  S
C977        C978   1.401       .  A
C977        C982   1.391       .  A
C977        H984   1.084       .  S
C978        C979   1.396       .  A
C979        C980   1.380       .  A
C979        N986   1.436       .  S
C980        C981   1.402       .  A
C980        H985   1.085       .  S
C981        C982   1.400       .  A
C982        N983   1.437       .  S
N983        H987   1.046       .  S
N983        H988   1.046       .  S
N986        H989   1.045       .  S
N986        H990   1.045       .  S
C991       C1336   1.409   1_554  A
C991        C996   1.396       .  A
C991        H998   1.078   1_554  S
C992       C1335   1.409       .  A
C992       C1337   1.426       .  A
C993       C1336   1.426   1_554  A
C993        C994   1.419       .  A
C993       N1000   1.438   1_554  S
C994        C995   1.412       .  A
C994        H999   1.079       .  S
C995        C996   1.428       .  A
C996        N997   1.444       .  S
N997       H1001   1.046       .  S
N997       H1002   1.036       .  S
N1000      H1347   1.040       .  S
N1000      H1004   1.045       .  S
H1003      N1344   1.040       .  S
C1005      C1006   1.405       .  A
C1005      C1010   1.386       .  A
C1005      H1012   1.085       .  S
C1006      C1007   1.413   1_655  A
C1007      C1008   1.388       .  A
C1007      N1014   1.438       .  S
C1008      C1009   1.398       .  A
C1008      H1013   1.084       .  S
C1009      C1010   1.391   1_455  A
C1010      N1011   1.438       .  S
N1011      H1015   1.046       .  S
N1011      H1016   1.045   1_655  S
N1014      H1017   1.041       .  S
N1014      H1018   1.045       .  S
C1019      C1708   1.407   1_554  A
C1019      C1024   1.401       .  A
C1019      H1026   1.071   1_554  S
C1020      C1033   1.550   1_455  S
C1020      C1021   1.429   1_456  A
C1021      C1022   1.399       .  A
C1021      N1372   1.439       .  S
C1022      C1023   1.403   1_655  A
C1022      H1027   1.070       .  S
C1024      C1711   1.426       .  A
C1024      N1025   1.438       .  S
N1025      H1029   1.046       .  S
N1025      H1030   1.034       .  S
N1028      C1365   1.439       .  S
N1028      H1031   1.032       .  S
N1028      H1376   1.046       .  S
H1032      N1372   1.046       .  S
C1033      C1035   1.532       .  S
C1033      C1036   1.593   1_655  S
C1034      C1726   1.543       .  S
C1034      C1040   1.538       .  S
C1034      C1039   1.519   1_655  S
C1034      N1091   1.499       .  S
C1035      C1043   1.391       .  A
C1035      C1038   1.358       .  A
C1037      C1721   1.586       .  S
C1037      C1051   1.429       .  A
C1037      C1040   1.415       .  A
C1038      C1041   1.376       .  A
C1039      C1724   1.416       .  A
C1039      C1045   1.382       .  A
C1040      C1048   1.335       .  A
C1041      N1042   1.345       .  A
C1041      H1054   1.072       .  S
N1042      C1043   1.366       .  A
N1042      C1069   1.427       .  S
C1043      H1044   1.082       .  S
C1045      N1046   1.348       .  A
C1045      H1055   1.082       .  S
N1046      C1047   1.355       .  A
N1046      N1167   1.415       .  S
C1047      C1724   1.410       .  A
C1047      H1053   1.080       .  S
C1048      N1049   1.315       .  A
C1048      H1050   1.065       .  S
N1049      C1051   1.363       .  A
N1049      C1059   1.431       .  S
C1051      H1052   1.078       .  S
O1056     Ni1062   1.896       .  S
O1056      C1077   1.277       .  A
O1057     Ni1080   1.946       .  S
O1057      C1066   1.300       .  A
O1058     Ni1062   1.804       .  S
O1058     Ni1080   1.843       .  S
O1058     Ni1074   1.875       .  S
O1058      H1081   0.967       .  S
C1059      O1076   1.247       .  A
C1059      O1068   1.296       .  A
O1060     Ni1079   1.927       .  S
O1060      C1066   1.287       .  A
O1061     Ni1079   1.929       .  S
O1061      C1063   1.261       .  A
Ni1062     O1065   1.874       .  S
Ni1062     O1067   1.863       .  S
C1063      C1082   1.592       .  S
C1063      O1073   1.288       .  A
O1064     Ni1080   2.028       .  S
O1064      C1070   1.319       .  A
O1065      C1070   1.274       .  A
C1066      N1242   1.445       .  S
O1067      C1069   1.266       .  A
O1068     Ni1079   2.014       .  S
C1069      O1075   1.303       .  A
C1070      C1083   1.562       .  S
H1071      O1072   0.966       .  S
O1072     Ni1080   1.916       .  S
O1072     Ni1074   1.861       .  S
O1072     Ni1079   1.849       .  S
O1073     Ni1074   2.032       .  S
Ni1074     O1078   1.884       .  S
Ni1074     O1076   1.885       .  S
O1075     Ni1080   2.000       .  S
C1077      O1078   1.261       .  A
C1077      C1350   1.429       .  S
C1082      C1084   1.519       .  S
C1082      C1086   1.551       .  S
C1082      C1085   1.588       .  S
C1083      C1087   1.538       .  S
C1083      C1089   1.513       .  S
C1083      C1088   1.561       .  S
C1084      C1092   1.374       .  A
C1084      C1775   1.383       .  A
C1085      C1096   1.404       .  A
C1085      C1776   1.460       .  A
C1086      C1100   1.407       .  A
C1086      C1777   1.386       .  A
C1087      C1090   1.393       .  A
C1088      C1094   1.378       .  A
C1089      C1097   1.369       .  A
C1090      H1103   1.077       .  S
N1091      C1778   1.359       .  A
N1091      C1092   1.349       .  A
C1092      H1093   1.081       .  S
C1094      H1104   1.083       .  S
N1095      C1782   1.348       .  A
N1095      C1096   1.365       .  A
N1095      N1118   1.416       .  S
C1096      H1102   1.080       .  S
C1097      H1099   1.082       .  S
N1098      C1785   1.349       .  A
N1098      C1100   1.346       .  A
N1098      C1210   1.434       .  S
C1100      H1101   1.080       .  S
C1105      C1107   1.513       .  S
C1105      C1797   1.510       .  S
C1105      C1108   1.499       .  S
C1105      N1163   1.479       .  S
C1106      C1112   1.598       .  S
C1106      C1367   1.546       .  S
C1107      C1115   1.366       .  A
C1107      C1110   1.381       .  A
C1108      C1119   1.375   1_455  A
C1108      C1111   1.384       .  A
C1109      C1123   1.374       .  A
C1109      C1112   1.401       .  A
C1110      C1794   1.578       .  S
C1110      C1113   1.407       .  A
C1111      C1794   1.593       .  S
C1111      C1117   1.415   1_455  A
C1112      C1120   1.422       .  A
C1113      N1114   1.373       .  A
C1113      H1126   1.081       .  S
N1114      C1115   1.324       .  A
N1114      C1131   1.431       .  S
C1115      H1116   1.074       .  S
C1117      N1118   1.365       .  A
C1117      H1127   1.079       .  S
N1118      C1119   1.348       .  A
C1119      H1125   1.083       .  S
C1120      N1121   1.369       .  A
C1120      H1122   1.082       .  S
N1121      C1123   1.323       .  A
N1121      C1141   1.435       .  S
C1123      H1124   1.073       .  S
O1128     Ni1134   1.915       .  S
O1128      C1149   1.289       .  A
O1129     Ni1152   1.948       .  S
O1129      C1138   1.294       .  A
O1130     Ni1134   1.792       .  S
O1130     Ni1152   1.851       .  S
O1130     Ni1146   1.894       .  S
O1130      H1153   0.967       .  S
C1131      O1148   1.264       .  A
C1131      O1140   1.302       .  A
O1132     Ni1151   1.908       .  S
O1132      C1138   1.273       .  A
O1133     Ni1151   1.951       .  S
O1133      C1135   1.256       .  A
Ni1134     O1137   1.924       .  S
Ni1134     O1139   1.881       .  S
C1135      C1154   1.574       .  S
C1135      O1145   1.270       .  A
O1136     Ni1152   1.999       .  S
O1136      C1142   1.309       .  A
O1137      C1142   1.290       .  A
C1138      N1314   1.438       .  S
O1139      C1141   1.259       .  A
O1140     Ni1151   1.987       .  S
C1141      O1147   1.313       .  A
C1142      C1155   1.577       .  S
H1143      O1144   0.967       .  S
O1144     Ni1152   1.889       .  S
O1144     Ni1146   1.863       .  S
O1144     Ni1151   1.846       .  S
O1145     Ni1146   1.971       .  S
Ni1146     O1150   1.885       .  S
Ni1146     O1148   1.882       .  S
O1147     Ni1152   2.030       .  S
C1149      O1150   1.262       .  A
C1149      C1353   1.435       .  S
C1154      C1156   1.516       .  S
C1154      C1158   1.533       .  S
C1154      C1157   1.586       .  S
C1155      C1159   1.525       .  S
C1155      C1161   1.534       .  S
C1155      C1160   1.571       .  S
C1156      C1164   1.372       .  A
C1156      C1847   1.373       .  A
C1157      C1168   1.400       .  A
C1157      C1848   1.474       .  A
C1158      C1172   1.401       .  A
C1158      C1849   1.384       .  A
C1159      C1162   1.380       .  A
C1160      C1166   1.384       .  A
C1161      C1169   1.383       .  A
C1162      H1175   1.080       .  S
N1163      C1850   1.350       .  A
N1163      C1164   1.350       .  A
C1164      H1165   1.076       .  S
C1166      H1176   1.083       .  S
N1167      C1854   1.351       .  A
N1167      C1168   1.360       .  A
C1168      H1174   1.082       .  S
C1169      H1171   1.082       .  S
N1170      C1857   1.352       .  A
N1170      C1172   1.339       .  A
N1170      C1282   1.436       .  S
C1172      H1173   1.079       .  S
C1177      C1179   1.571       .  S
C1177      C1181   1.571       .  S
C1177      C1180   1.595       .  S
C1177      C1339   1.547       .  S
C1178      C1182   1.547       .  S
C1178      C1184   1.521       .  S
C1178      C1183   1.505       .  S
C1178      N1235   1.505       .  S
C1179      C1187   1.413       .  A
C1179      C1182   1.392       .  A
C1180      C1191   1.409       .  A
C1180      C1183   1.403       .  A
C1181      C1195   1.424       .  A
C1181      C1184   1.390       .  A
C1182      C1185   1.383       .  A
C1183      C1189   1.381       .  A
C1184      C1192   1.314       .  A
C1185      N1186   1.335       .  A
C1185      H1198   1.072       .  S
N1186      C1187   1.372       .  A
N1186      C1213   1.446       .  S
C1187      H1188   1.080       .  S
C1189      N1190   1.350       .  A
C1189      H1199   1.083       .  S
N1190      C1191   1.370       .  A
N1190      N1311   1.421       .  S
C1191      H1197   1.082       .  S
C1192      N1193   1.315       .  A
C1192      H1194   1.055       .  S
N1193      C1195   1.369       .  A
N1193      C1203   1.429       .  S
C1195      H1196   1.082       .  S
O1200     Ni1206   1.910       .  S
O1200      C1221   1.285       .  A
O1201     Ni1224   1.935       .  S
O1201      C1210   1.296       .  A
O1202     Ni1206   1.798       .  S
O1202     Ni1224   1.841       .  S
O1202     Ni1906   1.881       .  S
O1202      H1225   0.967       .  S
C1203      O1220   1.255       .  A
C1203      O1212   1.297       .  A
O1204     Ni1223   1.913       .  S
O1205     Ni1223   1.943       .  S
O1205      C1207   1.259       .  A
Ni1206     O1209   1.898       .  S
Ni1206     O1211   1.873       .  S
C1207      C1226   1.597       .  S
C1207      O1217   1.280       .  A
O1208     Ni1224   2.007       .  S
O1208      C1214   1.311       .  A
O1209      C1214   1.282       .  A
C1210      O1892   1.282       .  A
O1211      C1213   1.265       .  A
O1212     Ni1223   2.005       .  S
C1213      O1219   1.311       .  A
C1214      C1227   1.562       .  S
H1215      O1904   0.967       .  S
O1216     Ni1218   1.851       .  S
O1216     Ni1223   1.853       .  S
O1217     Ni1218   2.026       .  S
Ni1218     O1222   1.880       .  S
Ni1218     O1220   1.897       .  S
O1219     Ni1224   2.030       .  S
C1221      O1910   1.259       .  A
C1221      C1322   1.431       .  S
Ni1224     O1904   1.900       .  S
C1226      C1228   1.527       .  S
C1226      C1230   1.553       .  S
C1226      C1229   1.595       .  S
C1227      C1231   1.532       .  S
C1227      C1233   1.524       .  S
C1227      C1232   1.563       .  S
C1228      C1236   1.384       .  A
C1228      C1231   1.380       .  A
C1229      C1240   1.408       .  A
C1229      C1232   1.463       .  A
C1230      C1244   1.410       .  A
C1230      C1233   1.384       .  A
C1231      C1234   1.392       .  A
C1232      C1238   1.382       .  A
C1233      C1241   1.380       .  A
C1234      N1235   1.354       .  A
C1234      H1247   1.078       .  S
N1235      C1236   1.356       .  A
C1236      H1237   1.080       .  S
C1238      N1239   1.349       .  A
C1238      H1248   1.083       .  S
N1239      C1240   1.368       .  A
N1239      N1262   1.419       .  S
C1240      H1246   1.082       .  S
C1241      N1242   1.353       .  A
C1241      H1243   1.082       .  S
N1242      C1244   1.348       .  A
C1244      H1245   1.080       .  S
C1249      C1251   1.541       .  S
C1249      C1253   1.580       .  S
C1249      C1252   1.581       .  S
C1249      C1336   1.555       .  S
C1250      C1254   1.557       .  S
C1250      C1256   1.537       .  S
C1250      C1255   1.520       .  S
C1250      N1307   1.501       .  S
C1251      C1259   1.396       .  A
C1251      C1254   1.369       .  A
C1252      C1263   1.403       .  A
C1252      C1255   1.417       .  A
C1253      C1267   1.428       .  A
C1253      C1256   1.405       .  A
C1254      C1257   1.379       .  A
C1255      C1261   1.383       .  A
C1256      C1264   1.332       .  A
C1257      N1258   1.345       .  A
C1257      H1270   1.072       .  S
N1258      C1259   1.372       .  A
N1258      C1285   1.440       .  S
C1259      H1260   1.082       .  S
C1261      N1262   1.350       .  A
C1261      H1271   1.082       .  S
N1262      C1263   1.365       .  A
C1263      H1269   1.082       .  S
C1264      N1265   1.316       .  A
C1264      H1266   1.067       .  S
N1265      C1267   1.361       .  A
N1265      C1275   1.425       .  S
C1267      H1268   1.082       .  S
O1272     Ni1278   1.888       .  S
O1272      C1293   1.275       .  A
O1273     Ni1296   1.934       .  S
O1273      C1282   1.299       .  A
O1274     Ni1278   1.794       .  S
O1274     Ni1296   1.843       .  S
O1274     Ni1978   1.869       .  S
O1274      H1297   0.967       .  S
C1275      O1292   1.249       .  A
C1275      O1284   1.297       .  A
O1276     Ni1295   1.921       .  S
O1277     Ni1295   1.938       .  S
O1277      C1279   1.258       .  A
Ni1278     O1281   1.877       .  S
Ni1278     O1283   1.872       .  S
C1279      C1298   1.599       .  S
C1279      O1289   1.287       .  A
O1280     Ni1296   2.030       .  S
O1280      C1286   1.317       .  A
O1281      C1286   1.272       .  A
C1282      O1964   1.284       .  A
O1283      C1285   1.265       .  A
O1284     Ni1295   2.011       .  S
C1285      O1291   1.307       .  A
C1286      C1299   1.555       .  S
H1287      O1976   0.967       .  S
O1288     Ni1290   1.862       .  S
O1288     Ni1295   1.851       .  S
O1289     Ni1290   2.040       .  S
Ni1290     O1294   1.888       .  S
Ni1290     O1292   1.879       .  S
O1291     Ni1296   2.019       .  S
C1293      O1982   1.262       .  A
C1293      C1325   1.424       .  S
Ni1296     O1976   1.909       .  S
C1298      C1300   1.519       .  S
C1298      C1302   1.557       .  S
C1298      C1301   1.602       .  S
C1299      C1303   1.541       .  S
C1299      C1305   1.515       .  S
C1299      C1304   1.559       .  S
C1300      C1308   1.378       .  A
C1300      C1303   1.381       .  A
C1301      C1312   1.413       .  A
C1301      C1304   1.459       .  A
C1302      C1316   1.409       .  A
C1302      C1305   1.382       .  A
C1303      C1306   1.395       .  A
C1304      C1310   1.380       .  A
C1305      C1313   1.374       .  A
C1306      N1307   1.356       .  A
C1306      H1319   1.075       .  S
N1307      C1308   1.352       .  A
C1308      H1309   1.081       .  S
C1310      N1311   1.347       .  A
C1310      H1320   1.083       .  S
N1311      C1312   1.372       .  A
C1312      H1318   1.081       .  S
C1313      N1314   1.353       .  A
C1313      H1315   1.082       .  S
N1314      C1316   1.347       .  A
C1316      H1317   1.080       .  S
C1321      C1322   1.401       .  A
C1321      C1326   1.391       .  A
C1321      H1328   1.084       .  S
C1322      C1323   1.396       .  A
C1323      C1324   1.380       .  A
C1323      N1330   1.436       .  S
C1324      C1325   1.402       .  A
C1324      H1329   1.085       .  S
C1325      C1326   1.400       .  A
C1326      N1327   1.437       .  S
N1327      H1331   1.046       .  S
N1327      H1332   1.046       .  S
N1330      H1333   1.045       .  S
N1330      H1334   1.045       .  S
C1335      C1340   1.396       .  A
C1335      H1342   1.078       .  S
C1337      C1338   1.419       .  A
C1337      N1344   1.438       .  S
C1338      C1339   1.412       .  A
C1338      H1343   1.079       .  S
C1339      C1340   1.428       .  A
C1340      N1341   1.444       .  S
N1341      H1345   1.046       .  S
N1341      H1346   1.036       .  S
N1344      H1348   1.045       .  S
C1349      C1350   1.405       .  A
C1349      C1354   1.386       .  A
C1349      H1356   1.085       .  S
C1350      C1351   1.413   1_655  A
C1351      C1352   1.388       .  A
C1351      N1358   1.438       .  S
C1352      C1353   1.398       .  A
C1352      H1357   1.084       .  S
C1353      C1354   1.391   1_455  A
C1354      N1355   1.438       .  S
N1355      H1359   1.046       .  S
N1355      H1360   1.045   1_655  S
N1358      H1361   1.041       .  S
N1358      H1362   1.045       .  S
C1363      C2052   1.407       .  A
C1363      C1368   1.401       .  A
C1363      H1370   1.071       .  S
C1364      C1365   1.429   1_455  A
C1365      C1366   1.399       .  A
C1366      C1367   1.403   1_655  A
C1366      H1371   1.070       .  S
C1368      C2055   1.426       .  A
C1368      N1369   1.438       .  S
N1369      H1373   1.046       .  S
N1369      H1374   1.034       .  S
N1372      H1375   1.032   1_554  S
C1377      C1379   1.532       .  S
C1377      C1380   1.593   1_655  S
C1377      C2052   1.550   1_655  S
C1378      C1384   1.538       .  S
C1378      C1383   1.519   1_655  S
C1378      N1435   1.499       .  S
C1379      C1387   1.391       .  A
C1379      C1382   1.358       .  A
C1381      C1395   1.429       .  A
C1381      C1384   1.415       .  A
C1382      C1385   1.376       .  A
C1383      C1389   1.382       .  A
C1384      C1392   1.335       .  A
C1385      N1386   1.345       .  A
C1385      H1398   1.072       .  S
N1386      C1387   1.366       .  A
N1386      C1413   1.427       .  S
C1387      H1388   1.082       .  S
C1389      N1390   1.348       .  A
C1389      H1399   1.082       .  S
N1390      C1391   1.355       .  A
N1390      N1511   1.415       .  S
C1391      H1397   1.080       .  S
C1392      N1393   1.315       .  A
C1392      H1394   1.065       .  S
N1393      C1395   1.363       .  A
N1393      C1403   1.431       .  S
C1395      H1396   1.078       .  S
O1400     Ni1406   1.896       .  S
O1400      C1421   1.277       .  A
O1401     Ni1424   1.946       .  S
O1401      C1410   1.300       .  A
O1402     Ni1406   1.804       .  S
O1402     Ni1424   1.843       .  S
O1402     Ni1418   1.875       .  S
O1402      H1425   0.967       .  S
C1403      O1420   1.247       .  A
C1403      O1412   1.296       .  A
O1404     Ni1423   1.927       .  S
O1404      C1410   1.287       .  A
O1405     Ni1423   1.929       .  S
O1405      C1407   1.261       .  A
Ni1406     O1409   1.874       .  S
Ni1406     O1411   1.863       .  S
C1407      C1426   1.592       .  S
C1407      O1417   1.288       .  A
O1408     Ni1424   2.028       .  S
O1408      C1414   1.319       .  A
O1409      C1414   1.274       .  A
C1410      N1586   1.445       .  S
O1411      C1413   1.266       .  A
O1412     Ni1423   2.014       .  S
C1413      O1419   1.303       .  A
C1414      C1427   1.562       .  S
H1415      O1416   0.966       .  S
O1416     Ni1424   1.916       .  S
O1416     Ni1418   1.861       .  S
O1416     Ni1423   1.849       .  S
O1417     Ni1418   2.032       .  S
Ni1418     O1422   1.884       .  S
Ni1418     O1420   1.885       .  S
O1419     Ni1424   2.000       .  S
C1421      O1422   1.261       .  A
C1421      C1694   1.429       .  S
C1426      C1428   1.519       .  S
C1426      C1430   1.551       .  S
C1426      C1429   1.588       .  S
C1427      C1431   1.538       .  S
C1427      C1433   1.513       .  S
C1427      C1432   1.561       .  S
C1428      C1436   1.374       .  A
C1429      C1440   1.404       .  A
C1430      C1444   1.407       .  A
C1431      C1434   1.393       .  A
C1432      C1438   1.378       .  A
C1433      C1441   1.369       .  A
C1434      H1447   1.077       .  S
N1435      C1436   1.349       .  A
C1436      H1437   1.081       .  S
C1438      H1448   1.083       .  S
N1439      C1440   1.365       .  A
N1439      N1462   1.416       .  S
C1440      H1446   1.080       .  S
C1441      H1443   1.082       .  S
N1442      C1444   1.346       .  A
N1442      C1554   1.434       .  S
C1444      H1445   1.080       .  S
C1449      C1451   1.513       .  S
C1449      C1452   1.499       .  S
C1449      N1507   1.479       .  S
C1450      C1456   1.598       .  S
C1450      C1711   1.546       .  S
C1451      C1459   1.366       .  A
C1451      C1454   1.381       .  A
C1452      C1463   1.375   1_455  A
C1452      C1455   1.384       .  A
C1453      C1467   1.374       .  A
C1453      C1456   1.401       .  A
C1454      C1457   1.407       .  A
C1455      C1461   1.415   1_455  A
C1456      C1464   1.422       .  A
C1457      N1458   1.373       .  A
C1457      H1470   1.081       .  S
N1458      C1459   1.324       .  A
N1458      C1475   1.431       .  S
C1459      H1460   1.074       .  S
C1461      N1462   1.365       .  A
C1461      H1471   1.079       .  S
N1462      C1463   1.348       .  A
C1463      H1469   1.083       .  S
C1464      N1465   1.369       .  A
C1464      H1466   1.082       .  S
N1465      C1467   1.323       .  A
N1465      C1485   1.435       .  S
C1467      H1468   1.073       .  S
O1472     Ni1478   1.915       .  S
O1472      C1493   1.289       .  A
O1473     Ni1496   1.948       .  S
O1473      C1482   1.294       .  A
O1474     Ni1478   1.792       .  S
O1474     Ni1496   1.851       .  S
O1474     Ni1490   1.894       .  S
O1474      H1497   0.967       .  S
C1475      O1492   1.264       .  A
C1475      O1484   1.302       .  A
O1476     Ni1495   1.908       .  S
O1476      C1482   1.273       .  A
O1477     Ni1495   1.951       .  S
O1477      C1479   1.256       .  A
Ni1478     O1481   1.924       .  S
Ni1478     O1483   1.881       .  S
C1479      C1498   1.574       .  S
C1479      O1489   1.270       .  A
O1480     Ni1496   1.999       .  S
O1480      C1486   1.309       .  A
O1481      C1486   1.290       .  A
C1482      N1658   1.438       .  S
O1483      C1485   1.259       .  A
O1484     Ni1495   1.987       .  S
C1485      O1491   1.313       .  A
C1486      C1499   1.577       .  S
H1487      O1488   0.967       .  S
O1488     Ni1496   1.889       .  S
O1488     Ni1490   1.863       .  S
O1488     Ni1495   1.846       .  S
O1489     Ni1490   1.971       .  S
Ni1490     O1494   1.885       .  S
Ni1490     O1492   1.882       .  S
O1491     Ni1496   2.030       .  S
C1493      O1494   1.262       .  A
C1493      C1697   1.435       .  S
C1498      C1500   1.516       .  S
C1498      C1502   1.533       .  S
C1498      C1501   1.586       .  S
C1499      C1503   1.525       .  S
C1499      C1505   1.534       .  S
C1499      C1504   1.571       .  S
C1500      C1508   1.372       .  A
C1501      C1512   1.400       .  A
C1502      C1516   1.401       .  A
C1503      C1506   1.380       .  A
C1504      C1510   1.384       .  A
C1505      C1513   1.383       .  A
C1506      H1519   1.080       .  S
N1507      C1508   1.350       .  A
C1508      H1509   1.076       .  S
C1510      H1520   1.083       .  S
N1511      C1512   1.360       .  A
C1512      H1518   1.082       .  S
C1513      H1515   1.082       .  S
N1514      C1516   1.339       .  A
N1514      C1626   1.436       .  S
C1516      H1517   1.079       .  S
C1521      C1523   1.571       .  S
C1521      C1525   1.571       .  S
C1521      C1524   1.595       .  S
C1521      C1683   1.547       .  S
C1522      C1526   1.547       .  S
C1522      C1528   1.521       .  S
C1522      C1527   1.505       .  S
C1522      N1579   1.505       .  S
C1523      C1531   1.413       .  A
C1523      C1526   1.392       .  A
C1524      C1535   1.409       .  A
C1524      C1527   1.403       .  A
C1525      C1539   1.424       .  A
C1525      C1528   1.390       .  A
C1526      C1529   1.383       .  A
C1527      C1533   1.381       .  A
C1528      C1536   1.314       .  A
C1529      N1530   1.335       .  A
C1529      H1542   1.072       .  S
N1530      C1531   1.372       .  A
N1530      C1557   1.446       .  S
C1531      H1532   1.080       .  S
C1533      N1534   1.350       .  A
C1533      H1543   1.083       .  S
N1534      C1535   1.370       .  A
N1534      N1655   1.421       .  S
C1535      H1541   1.082       .  S
C1536      N1537   1.315       .  A
C1536      H1538   1.055       .  S
N1537      C1539   1.369       .  A
N1537      C1547   1.429       .  S
C1539      H1540   1.082       .  S
O1544     Ni1550   1.910       .  S
O1544      C1565   1.285   1_565  A
O1545     Ni1568   1.934       .  S
O1545      C1554   1.296       .  A
O1546     Ni1550   1.798       .  S
O1546     Ni1568   1.841       .  S
O1546      H1569   0.967       .  S
C1547      O1564   1.255       .  A
C1547      O1556   1.297       .  A
O1548     Ni1567   1.913       .  S
O1549     Ni1567   1.943       .  S
O1549      C1551   1.259       .  A
Ni1550     O1553   1.898       .  S
Ni1550     O1555   1.873       .  S
C1551      C1570   1.597       .  S
C1551      O1561   1.280       .  A
O1552     Ni1568   2.007       .  S
O1552      C1558   1.311       .  A
O1553      C1558   1.282       .  A
O1555      C1557   1.265       .  A
O1556     Ni1567   2.005       .  S
C1557      O1563   1.311       .  A
C1558      C1571   1.561       .  S
O1560     Ni1562   1.851       .  S
O1560     Ni1567   1.853       .  S
O1561     Ni1562   2.026       .  S
Ni1562     O1566   1.880       .  S
Ni1562     O1564   1.897       .  S
O1563     Ni1568   2.030       .  S
C1565      C1666   1.431       .  S
C1570      C1572   1.527       .  S
C1570      C1574   1.553       .  S
C1570      C1573   1.595       .  S
C1571      C1575   1.532       .  S
C1571      C1577   1.524       .  S
C1571      C1576   1.563       .  S
C1572      C1580   1.384       .  A
C1572      C1575   1.380       .  A
C1573      C1584   1.408       .  A
C1573      C1576   1.463       .  A
C1574      C1588   1.410       .  A
C1574      C1577   1.384       .  A
C1575      C1578   1.392       .  A
C1576      C1582   1.382       .  A
C1577      C1585   1.380       .  A
C1578      N1579   1.354       .  A
C1578      H1591   1.078       .  S
N1579      C1580   1.356       .  A
C1580      H1581   1.080       .  S
C1582      N1583   1.349       .  A
C1582      H1592   1.083       .  S
N1583      C1584   1.368       .  A
N1583      N1606   1.419       .  S
C1584      H1590   1.082       .  S
C1585      N1586   1.353       .  A
C1585      H1587   1.082       .  S
N1586      C1588   1.348       .  A
C1588      H1589   1.080       .  S
C1593      C1595   1.541       .  S
C1593      C1597   1.580       .  S
C1593      C1596   1.581       .  S
C1593      C1680   1.555       .  S
C1594      C1598   1.557       .  S
C1594      C1600   1.537       .  S
C1594      C1599   1.520       .  S
C1594      N1651   1.501       .  S
C1595      C1603   1.396       .  A
C1595      C1598   1.369       .  A
C1596      C1607   1.403       .  A
C1596      C1599   1.417       .  A
C1597      C1611   1.428       .  A
C1597      C1600   1.405       .  A
C1598      C1601   1.379       .  A
C1599      C1605   1.383       .  A
C1600      C1608   1.332       .  A
C1601      N1602   1.345       .  A
C1601      H1614   1.072       .  S
N1602      C1603   1.372       .  A
N1602      C1629   1.440       .  S
C1603      H1604   1.082       .  S
C1605      N1606   1.350       .  A
C1605      H1615   1.082       .  S
N1606      C1607   1.365       .  A
C1607      H1613   1.082       .  S
C1608      N1609   1.316       .  A
C1608      H1610   1.067       .  S
N1609      C1611   1.361       .  A
N1609      C1619   1.425       .  S
C1611      H1612   1.082       .  S
O1616     Ni1622   1.888       .  S
O1616      C1637   1.275       .  A
O1617     Ni1640   1.934       .  S
O1617      C1626   1.299       .  A
O1618     Ni1622   1.794       .  S
O1618     Ni1640   1.843       .  S
O1618      H1641   0.967       .  S
C1619      O1636   1.249       .  A
C1619      O1628   1.297       .  A
O1620     Ni1639   1.921       .  S
O1621     Ni1639   1.938       .  S
O1621      C1623   1.258       .  A
Ni1622     O1625   1.877       .  S
Ni1622     O1627   1.872       .  S
C1623      C1642   1.599       .  S
C1623      O1633   1.287       .  A
O1624     Ni1640   2.030       .  S
O1624      C1630   1.317       .  A
O1625      C1630   1.272       .  A
O1627      C1629   1.265       .  A
O1628     Ni1639   2.011       .  S
C1629      O1635   1.307       .  A
C1630      C1643   1.555       .  S
O1632     Ni1634   1.862       .  S
O1632     Ni1639   1.851       .  S
O1633     Ni1634   2.040       .  S
Ni1634     O1638   1.888       .  S
Ni1634     O1636   1.879       .  S
O1635     Ni1640   2.019       .  S
C1637      C1669   1.424   1_565  S
C1642      C1644   1.519       .  S
C1642      C1646   1.557       .  S
C1642      C1645   1.602       .  S
C1643      C1647   1.541       .  S
C1643      C1649   1.515       .  S
C1643      C1648   1.559       .  S
C1644      C1652   1.378       .  A
C1644      C1647   1.381       .  A
C1645      C1656   1.413       .  A
C1645      C1648   1.459       .  A
C1646      C1660   1.409       .  A
C1646      C1649   1.382       .  A
C1647      C1650   1.395       .  A
C1648      C1654   1.380       .  A
C1649      C1657   1.374       .  A
C1650      N1651   1.356       .  A
C1650      H1663   1.075       .  S
N1651      C1652   1.352       .  A
C1652      H1653   1.081       .  S
C1654      N1655   1.347       .  A
C1654      H1664   1.083       .  S
N1655      C1656   1.372       .  A
C1656      H1662   1.081       .  S
C1657      N1658   1.353       .  A
C1657      H1659   1.082       .  S
N1658      C1660   1.347       .  A
C1660      H1661   1.080       .  S
C1665      C1666   1.401       .  A
C1665      C1670   1.391       .  A
C1665      H1672   1.084       .  S
C1666      C1667   1.396       .  A
C1667      C1668   1.380       .  A
C1667      N1674   1.436       .  S
C1668      C1669   1.402       .  A
C1668      H1673   1.085       .  S
C1669      C1670   1.400       .  A
C1670      N1671   1.437       .  S
N1671      H1675   1.046       .  S
N1671      H1676   1.046   1_545  S
N1674      H1677   1.045       .  S
N1674      H1678   1.045       .  S
C1679      C2024   1.409   1_554  A
C1679      C1684   1.396       .  A
C1679      H1686   1.078   1_554  S
C1680      C2023   1.409       .  A
C1680      C2025   1.426       .  A
C1681      C2024   1.426   1_554  A
C1681      C1682   1.419       .  A
C1681      N1688   1.438   1_554  S
C1682      C1683   1.412       .  A
C1682      H1687   1.079       .  S
C1683      C1684   1.428       .  A
C1684      N1685   1.444       .  S
N1685      H1689   1.046       .  S
N1685      H1690   1.036       .  S
N1688      H2035   1.040       .  S
N1688      H1692   1.045       .  S
H1691      N2032   1.040       .  S
C1693      C1694   1.405       .  A
C1693      C1698   1.386       .  A
C1693      H1700   1.085       .  S
C1694      C1695   1.413   1_655  A
C1695      C1696   1.388       .  A
C1695      N1702   1.438       .  S
C1696      C1697   1.398       .  A
C1696      H1701   1.084       .  S
C1697      C1698   1.391   1_455  A
C1698      N1699   1.438       .  S
N1699      H1703   1.046       .  S
N1699      H1704   1.045   1_655  S
N1702      H1705   1.041       .  S
N1702      H1706   1.045       .  S
C1707      C1712   1.401       .  A
C1707      H1714   1.071   1_554  S
C1708      C1721   1.550   1_455  S
C1708      C1709   1.429   1_456  A
C1709      C1710   1.399       .  A
C1709      N2060   1.439       .  S
C1710      C1711   1.403   1_655  A
C1710      H1715   1.070       .  S
C1712      N1713   1.438       .  S
N1713      H1717   1.046   1_545  S
N1713      H1718   1.034       .  S
N1716      C2053   1.439       .  S
N1716      H1719   1.032       .  S
N1716      H2064   1.046       .  S
H1720      N2060   1.046       .  S
C1721      C1723   1.532       .  S
C1721      C1724   1.593   1_655  S
C1722      C1728   1.538       .  S
C1722      C1727   1.519   1_655  S
C1722      N1779   1.499       .  S
C1723      C1731   1.391       .  A
C1723      C1726   1.358       .  A
C1725      C1739   1.429       .  A
C1725      C1728   1.415       .  A
C1726      C1729   1.376       .  A
C1727      C1733   1.382       .  A
C1728      C1736   1.335       .  A
C1729      N1730   1.345       .  A
C1729      H1742   1.072       .  S
N1730      C1731   1.366       .  A
N1730      C1757   1.427       .  S
C1731      H1732   1.082       .  S
C1733      N1734   1.348       .  A
C1733      H1743   1.082       .  S
N1734      C1735   1.355       .  A
N1734      N1855   1.415       .  S
C1735      H1741   1.080       .  S
C1736      N1737   1.315       .  A
C1736      H1738   1.065       .  S
N1737      C1739   1.363       .  A
N1737      C1747   1.431       .  S
C1739      H1740   1.078       .  S
O1744     Ni1750   1.896       .  S
O1744      C1765   1.277       .  A
O1745     Ni1768   1.946       .  S
O1745      C1754   1.300       .  A
O1746     Ni1750   1.804       .  S
O1746     Ni1768   1.843       .  S
O1746     Ni1762   1.875       .  S
O1746      H1769   0.967       .  S
C1747      O1764   1.247       .  A
C1747      O1756   1.296       .  A
O1748     Ni1767   1.927       .  S
O1748      C1754   1.287       .  A
O1749     Ni1767   1.929       .  S
O1749      C1751   1.261       .  A
Ni1750     O1753   1.874       .  S
Ni1750     O1755   1.863       .  S
C1751      C1770   1.592       .  S
C1751      O1761   1.288       .  A
O1752     Ni1768   2.028       .  S
O1752      C1758   1.319       .  A
O1753      C1758   1.274       .  A
C1754      N1930   1.445       .  S
O1755      C1757   1.266       .  A
O1756     Ni1767   2.014       .  S
C1757      O1763   1.303       .  A
C1758      C1771   1.562       .  S
H1759      O1760   0.966       .  S
O1760     Ni1768   1.916       .  S
O1760     Ni1762   1.861       .  S
O1760     Ni1767   1.849       .  S
O1761     Ni1762   2.032       .  S
Ni1762     O1766   1.884       .  S
Ni1762     O1764   1.885       .  S
O1763     Ni1768   2.000       .  S
C1765      O1766   1.261       .  A
C1765      C2038   1.429       .  S
C1770      C1772   1.519       .  S
C1770      C1774   1.551       .  S
C1770      C1773   1.588       .  S
C1771      C1775   1.538       .  S
C1771      C1777   1.513       .  S
C1771      C1776   1.561       .  S
C1772      C1780   1.374       .  A
C1773      C1784   1.404       .  A
C1774      C1788   1.407       .  A
C1775      C1778   1.393       .  A
C1776      C1782   1.378       .  A
C1777      C1785   1.369       .  A
C1778      H1791   1.077       .  S
N1779      C1780   1.349       .  A
C1780      H1781   1.081       .  S
C1782      H1792   1.083       .  S
N1783      C1784   1.365       .  A
N1783      N1806   1.416       .  S
C1784      H1790   1.080       .  S
C1785      H1787   1.082       .  S
N1786      C1788   1.346       .  A
N1786      C1898   1.434       .  S
C1788      H1789   1.080       .  S
C1793      C1795   1.513       .  S
C1793      C1796   1.499       .  S
C1793      N1851   1.479       .  S
C1794      C1800   1.598       .  S
C1794      C2055   1.546       .  S
C1795      C1803   1.366       .  A
C1795      C1798   1.382       .  A
C1796      C1807   1.374   1_455  A
C1796      C1799   1.384       .  A
C1797      C1811   1.374       .  A
C1797      C1800   1.401       .  A
C1798      C1801   1.407       .  A
C1799      C1805   1.415   1_455  A
C1800      C1808   1.422       .  A
C1801      N1802   1.373       .  A
C1801      H1814   1.081       .  S
N1802      C1803   1.324       .  A
N1802      C1819   1.431       .  S
C1803      H1804   1.074       .  S
C1805      N1806   1.365       .  A
C1805      H1815   1.079       .  S
N1806      C1807   1.348       .  A
C1807      H1813   1.083       .  S
C1808      N1809   1.369       .  A
C1808      H1810   1.082       .  S
N1809      C1811   1.323       .  A
N1809      C1829   1.435       .  S
C1811      H1812   1.073       .  S
O1816     Ni1822   1.915       .  S
O1816      C1837   1.289       .  A
O1817     Ni1840   1.948       .  S
O1817      C1826   1.294       .  A
O1818     Ni1822   1.792       .  S
O1818     Ni1840   1.851       .  S
O1818     Ni1834   1.894       .  S
O1818      H1841   0.967       .  S
C1819      O1836   1.264       .  A
C1819      O1828   1.302       .  A
O1820     Ni1839   1.908       .  S
O1820      C1826   1.273       .  A
O1821     Ni1839   1.951       .  S
O1821      C1823   1.256       .  A
Ni1822     O1825   1.924       .  S
Ni1822     O1827   1.881       .  S
C1823      C1842   1.574       .  S
C1823      O1833   1.270       .  A
O1824     Ni1840   1.999       .  S
O1824      C1830   1.309       .  A
O1825      C1830   1.290       .  A
C1826      N2002   1.438       .  S
O1827      C1829   1.259       .  A
O1828     Ni1839   1.987       .  S
C1829      O1835   1.313       .  A
C1830      C1843   1.577       .  S
H1831      O1832   0.967       .  S
O1832     Ni1840   1.889       .  S
O1832     Ni1834   1.863       .  S
O1832     Ni1839   1.846       .  S
O1833     Ni1834   1.971       .  S
Ni1834     O1838   1.885       .  S
Ni1834     O1836   1.882       .  S
O1835     Ni1840   2.030       .  S
C1837      O1838   1.262       .  A
C1837      C2041   1.435       .  S
C1842      C1844   1.516       .  S
C1842      C1846   1.533       .  S
C1842      C1845   1.586       .  S
C1843      C1847   1.525       .  S
C1843      C1849   1.534       .  S
C1843      C1848   1.571       .  S
C1844      C1852   1.372       .  A
C1845      C1856   1.400       .  A
C1846      C1860   1.401       .  A
C1847      C1850   1.380       .  A
C1848      C1854   1.384       .  A
C1849      C1857   1.383       .  A
C1850      H1863   1.080       .  S
N1851      C1852   1.350       .  A
C1852      H1853   1.076       .  S
C1854      H1864   1.083       .  S
N1855      C1856   1.360       .  A
C1856      H1862   1.082       .  S
C1857      H1859   1.082       .  S
N1858      C1860   1.339       .  A
N1858      C1970   1.436       .  S
C1860      H1861   1.079       .  S
C1865      C1867   1.571       .  S
C1865      C1869   1.571       .  S
C1865      C1868   1.595       .  S
C1865      C2027   1.547       .  S
C1866      C1870   1.547       .  S
C1866      C1872   1.521       .  S
C1866      C1871   1.505       .  S
C1866      N1923   1.505       .  S
C1867      C1875   1.413       .  A
C1867      C1870   1.392       .  A
C1868      C1879   1.409       .  A
C1868      C1871   1.403       .  A
C1869      C1883   1.424       .  A
C1869      C1872   1.390       .  A
C1870      C1873   1.383       .  A
C1871      C1877   1.381       .  A
C1872      C1880   1.314       .  A
C1873      N1874   1.335       .  A
C1873      H1886   1.072       .  S
N1874      C1875   1.372       .  A
N1874      C1901   1.446       .  S
C1875      H1876   1.080       .  S
C1877      N1878   1.350       .  A
C1877      H1887   1.083       .  S
N1878      C1879   1.370       .  A
N1878      N1999   1.421       .  S
C1879      H1885   1.082       .  S
C1880      N1881   1.315       .  A
C1880      H1882   1.055       .  S
N1881      C1883   1.369       .  A
N1881      C1891   1.429       .  S
C1883      H1884   1.082       .  S
O1888     Ni1894   1.910       .  S
O1888      C1909   1.285   1_565  A
O1889     Ni1912   1.935       .  S
O1889      C1898   1.296       .  A
O1890     Ni1894   1.798       .  S
O1890     Ni1912   1.841       .  S
O1890      H1913   0.967       .  S
C1891      O1908   1.255       .  A
C1891      O1900   1.297       .  A
O1892     Ni1911   1.913       .  S
O1893     Ni1911   1.943       .  S
O1893      C1895   1.259       .  A
Ni1894     O1897   1.898       .  S
Ni1894     O1899   1.873       .  S
C1895      C1914   1.597       .  S
C1895      O1905   1.280       .  A
O1896     Ni1912   2.007       .  S
O1896      C1902   1.311       .  A
O1897      C1902   1.282       .  A
O1899      C1901   1.265       .  A
O1900     Ni1911   2.005       .  S
C1901      O1907   1.311       .  A
C1902      C1915   1.561       .  S
O1904     Ni1906   1.851       .  S
O1904     Ni1911   1.853       .  S
O1905     Ni1906   2.026       .  S
Ni1906     O1910   1.880       .  S
Ni1906     O1908   1.897       .  S
O1907     Ni1912   2.030       .  S
C1909      C2010   1.431       .  S
C1914      C1916   1.527       .  S
C1914      C1918   1.553       .  S
C1914      C1917   1.595       .  S
C1915      C1919   1.532       .  S
C1915      C1921   1.524       .  S
C1915      C1920   1.563       .  S
C1916      C1924   1.384       .  A
C1916      C1919   1.380       .  A
C1917      C1928   1.408       .  A
C1917      C1920   1.463       .  A
C1918      C1932   1.410       .  A
C1918      C1921   1.384       .  A
C1919      C1922   1.392       .  A
C1920      C1926   1.382       .  A
C1921      C1929   1.380       .  A
C1922      N1923   1.354       .  A
C1922      H1935   1.078       .  S
N1923      C1924   1.356       .  A
C1924      H1925   1.080       .  S
C1926      N1927   1.349       .  A
C1926      H1936   1.083       .  S
N1927      C1928   1.368       .  A
N1927      N1950   1.419       .  S
C1928      H1934   1.082       .  S
C1929      N1930   1.353       .  A
C1929      H1931   1.082       .  S
N1930      C1932   1.348       .  A
C1932      H1933   1.080       .  S
C1937      C1939   1.541       .  S
C1937      C1941   1.580       .  S
C1937      C1940   1.581       .  S
C1937      C2024   1.555       .  S
C1938      C1942   1.557       .  S
C1938      C1944   1.537       .  S
C1938      C1943   1.521       .  S
C1938      N1995   1.501       .  S
C1939      C1947   1.396       .  A
C1939      C1942   1.369       .  A
C1940      C1951   1.403       .  A
C1940      C1943   1.417       .  A
C1941      C1955   1.428       .  A
C1941      C1944   1.405       .  A
C1942      C1945   1.379       .  A
C1943      C1949   1.383       .  A
C1944      C1952   1.332       .  A
C1945      N1946   1.345       .  A
C1945      H1958   1.072       .  S
N1946      C1947   1.372       .  A
N1946      C1973   1.440       .  S
C1947      H1948   1.082       .  S
C1949      N1950   1.350       .  A
C1949      H1959   1.082       .  S
N1950      C1951   1.365       .  A
C1951      H1957   1.082       .  S
C1952      N1953   1.316       .  A
C1952      H1954   1.067       .  S
N1953      C1955   1.361       .  A
N1953      C1963   1.425       .  S
C1955      H1956   1.082       .  S
O1960     Ni1966   1.888       .  S
O1960      C1981   1.275       .  A
O1961     Ni1984   1.934       .  S
O1961      C1970   1.299       .  A
O1962     Ni1966   1.794       .  S
O1962     Ni1984   1.843       .  S
O1962      H1985   0.967       .  S
C1963      O1980   1.249       .  A
C1963      O1972   1.297       .  A
O1964     Ni1983   1.921       .  S
O1965     Ni1983   1.938       .  S
O1965      C1967   1.258       .  A
Ni1966     O1969   1.877       .  S
Ni1966     O1971   1.872       .  S
C1967      C1986   1.599       .  S
C1967      O1977   1.287       .  A
O1968     Ni1984   2.030       .  S
O1968      C1974   1.317       .  A
O1969      C1974   1.272       .  A
O1971      C1973   1.265       .  A
O1972     Ni1983   2.011       .  S
C1973      O1979   1.307       .  A
C1974      C1987   1.556       .  S
O1976     Ni1978   1.862       .  S
O1976     Ni1983   1.851       .  S
O1977     Ni1978   2.040       .  S
Ni1978     O1982   1.888       .  S
Ni1978     O1980   1.879       .  S
O1979     Ni1984   2.019       .  S
C1981      C2013   1.424   1_565  S
C1986      C1988   1.519       .  S
C1986      C1990   1.557       .  S
C1986      C1989   1.602       .  S
C1987      C1991   1.541       .  S
C1987      C1993   1.515       .  S
C1987      C1992   1.559       .  S
C1988      C1996   1.378       .  A
C1988      C1991   1.381       .  A
C1989      C2000   1.413       .  A
C1989      C1992   1.459       .  A
C1990      C2004   1.409       .  A
C1990      C1993   1.382       .  A
C1991      C1994   1.395       .  A
C1992      C1998   1.380       .  A
C1993      C2001   1.374       .  A
C1994      N1995   1.356       .  A
C1994      H2007   1.075       .  S
N1995      C1996   1.352       .  A
C1996      H1997   1.081       .  S
C1998      N1999   1.347       .  A
C1998      H2008   1.083       .  S
N1999      C2000   1.372       .  A
C2000      H2006   1.081       .  S
C2001      N2002   1.353       .  A
C2001      H2003   1.082       .  S
N2002      C2004   1.347       .  A
C2004      H2005   1.080       .  S
C2009      C2010   1.401       .  A
C2009      C2014   1.391       .  A
C2009      H2016   1.084       .  S
C2010      C2011   1.396       .  A
C2011      C2012   1.380       .  A
C2011      N2018   1.436       .  S
C2012      C2013   1.402       .  A
C2012      H2017   1.085       .  S
C2013      C2014   1.400       .  A
C2014      N2015   1.437       .  S
N2015      H2019   1.046       .  S
N2015      H2020   1.046   1_545  S
N2018      H2021   1.045       .  S
N2018      H2022   1.045       .  S
C2023      C2028   1.396       .  A
C2023      H2030   1.078       .  S
C2025      C2026   1.419       .  A
C2025      N2032   1.438       .  S
C2026      C2027   1.412       .  A
C2026      H2031   1.079       .  S
C2027      C2028   1.428       .  A
C2028      N2029   1.444       .  S
N2029      H2033   1.046       .  S
N2029      H2034   1.036       .  S
N2032      H2036   1.045       .  S
C2037      C2038   1.405       .  A
C2037      C2042   1.386       .  A
C2037      H2044   1.085       .  S
C2038      C2039   1.413   1_655  A
C2039      C2040   1.388       .  A
C2039      N2046   1.438       .  S
C2040      C2041   1.398       .  A
C2040      H2045   1.084       .  S
C2041      C2042   1.391   1_455  A
C2042      N2043   1.438       .  S
N2043      H2047   1.046       .  S
N2043      H2048   1.045   1_655  S
N2046      H2049   1.041       .  S
N2046      H2050   1.045       .  S
C2051      C2056   1.401       .  A
C2051      H2058   1.071       .  S
C2052      C2053   1.429   1_455  A
C2053      C2054   1.399       .  A
C2054      C2055   1.403   1_655  A
C2054      H2059   1.070       .  S
C2056      N2057   1.438       .  S
N2057      H2061   1.046   1_545  S
N2057      H2062   1.034       .  S
N2060      H2063   1.032   1_554  S
