geometry optimzed in LAMMPS
_audit_creation_date              2020-12-01 
_audit_creation_method            'lammps2cif' 
_symmetry_space_group_name_H-M    'P1' 
_symmetry_Int_Tables_number       1 
_symmetry_cell_setting            triclinic 
loop_ 
_symmetry_equiv_pos_as_xyz 
  x,y,z 
_cell_length_a                    47.59729338 
_cell_length_b                    47.30881184828964 
_cell_length_c                    34.99802228362274 
_cell_angle_alpha                 89.70204571786287 
_cell_angle_beta                  89.93590165515462 
_cell_angle_gamma                 88.93293544099826 
loop_ 
_atom_site_label 
_atom_site_type_symbol 
_atom_site_fract_x 
_atom_site_fract_y 
_atom_site_fract_z 
_atom_site_charge 
N1          N  0.00809098  0.76115405  0.49939491    -0.02500
C2          C  0.00184710  0.73355119  0.49452512     0.00100
C3          C  0.98505697  0.72251547  0.02965407    -0.22800
C4          C  0.98479364  0.74453106  0.05518829    -0.23000
C5          C  0.99625883  0.76743444  0.03645438     0.00000
H6          H  0.97796299  0.70139596  0.03576969     0.13700
H7          H  0.97778695  0.74342035  0.08455522     0.13800
N8          N  0.02807885  0.22495375  0.02416422    -0.02500
C9          C  0.03579251  0.25211488  0.02887376     0.00100
C10         C  0.05085975  0.26064531  0.49715046    -0.22800
C11         C  0.05181016  0.23848690  0.47196373    -0.23000
C12         C  0.03886040  0.21595292  0.48977117     0.00000
H13         H  0.05863910  0.28160318  0.49159469     0.13700
H14         H  0.06132949  0.23894201  0.44390144     0.13800
N15         N  0.73387429  0.96126740  0.48488924    -0.02500
C16         C  0.76156074  0.95585962  0.47882717     0.00100
C17         C  0.76975440  0.93980060  0.01902084    -0.22800
C18         C  0.74689335  0.93568402  0.04219137    -0.23000
C19         C  0.72399306  0.94730671  0.02348322     0.00000
H20         H  0.79106280  0.93361712  0.02624414     0.13700
H21         H  0.74715900  0.92627218  0.07045038     0.13800
N22         N  0.26181246  0.01379205  0.99399184    -0.02500
C23         C  0.23463618  0.02119498  0.00054958     0.00100
C24         C  0.22238124  0.03397051  0.46941103    -0.22800
C25         C  0.24312242  0.03312230  0.44188072    -0.23000
C26         C  0.26723249  0.02280396  0.45956633     0.00000
H27         H  0.20067429  0.04006000  0.46451169     0.13700
H28         H  0.24031222  0.03808382  0.41190769     0.13800
N29         N  0.54618515  0.73217936  0.48075624    -0.02500
C30         C  0.54956064  0.76040712  0.47584597     0.00100
C31         C  0.55511974  0.77150738  0.00833297    -0.22800
C32         C  0.55439737  0.75109496  0.03635538    -0.23000
C33         C  0.54910620  0.72574414  0.01834292     0.00000
H34         H  0.55892296  0.79373092  0.01274429     0.13700
H35         H  0.55790855  0.75450488  0.06649926     0.13800
N36         N  0.49633309  0.26484991  0.00569218    -0.02500
C37         C  0.49377609  0.23649128  0.00993763     0.00100
C38         C  0.49677252  0.22348579  0.47281464    -0.22800
C39         C  0.49896221  0.24468704  0.44607304    -0.23000
C40         C  0.50021856  0.26992635  0.46591272     0.00000
H41         H  0.49623242  0.20112289  0.46664314     0.13700
H42         H  0.49975999  0.24154090  0.41552886     0.13800
N43         N  0.23730264  0.46874753  0.00801400    -0.02500
C44         C  0.26491052  0.46222434  0.01403001     0.00100
C45         C  0.27552866  0.44700218  0.48479046    -0.22800
C46         C  0.25419444  0.44436541  0.45872066    -0.23000
C47         C  0.23137979  0.45936585  0.47286744     0.00000
H48         H  0.29662776  0.43842592  0.48167967     0.13700
H49         H  0.25547602  0.43341313  0.43168143     0.13800
N50         N  0.76795341  0.53299916  0.48890369    -0.02500
C51         C  0.73994705  0.53688683  0.48385631     0.00100
C52         C  0.72711162  0.54132479  0.01877448    -0.22800
C53         C  0.74825936  0.53903482  0.04556809    -0.23000
C54         C  0.77308373  0.53381165  0.02578875     0.00000
H55         H  0.70504237  0.54478068  0.02490307     0.13700
H56         H  0.74544170  0.54110376  0.07607893     0.13800
O57         O  0.57761628  0.49363940  0.27858383    -0.79900
O58         O  0.45690028  0.47133555  0.21067319    -0.64600
O59         O  0.53190339  0.49614541  0.22614787    -1.11200
C60         C  0.48749297  0.56235864  0.31042533     1.06900
O61         O  0.43849625  0.51476698  0.20707534    -0.77800
O62         O  0.47110661  0.56049630  0.21766081    -0.65400
Ni63       Ni  0.56141343  0.46990935  0.23956770     1.34900
C64         C  0.49646036  0.56530876  0.20882047     0.85700
O65         O  0.50625179  0.45575041  0.18036433    -0.78400
O66         O  0.54958680  0.44366176  0.20099584    -0.88700
C67         C  0.43756484  0.48840478  0.19990839     0.85300
O68         O  0.54112713  0.45011039  0.27821027    -0.66900
O69         O  0.46409745  0.55628509  0.29503253    -0.86100
C70         C  0.51559670  0.44273204  0.27914329     0.86100
C71         C  0.52853045  0.44034499  0.17904171     1.07700
H72         H  0.48102507  0.49867171  0.28099365     0.39500
O73         O  0.48487863  0.50899819  0.25775146    -1.08800
O74         O  0.51741747  0.55180877  0.22305530    -0.65500
Ni75       Ni  0.52162722  0.52385143  0.26319030     1.26300
O76         O  0.49692306  0.45276969  0.25663444    -0.65700
O77         O  0.51087099  0.55119226  0.30050389    -0.78000
C78         C  0.57828937  0.52040936  0.28241447     0.85500
O79         O  0.55911809  0.53645886  0.26893775    -0.65100
Ni80       Ni  0.45335490  0.53431357  0.25110687     1.27400
Ni81       Ni  0.49480848  0.48243588  0.21867031     1.26100
H82         H  0.53761980  0.50547504  0.20285129     0.40000
O83         O  0.47397478  0.92327690  0.26667265    -0.79900
O84         O  0.47685915  0.04944169  0.21218742    -0.64600
O85         O  0.48838855  0.96985595  0.21987032    -1.11200
C86         C  0.56129530  0.99188100  0.30495903     1.06900
O87         O  0.52173480  0.06143036  0.21337471    -0.77800
O88         O  0.55545666  0.01519151  0.20762345    -0.65400
Ni89       Ni  0.45673852  0.94571078  0.22662042     1.34900
C90         C  0.55789230  0.98875291  0.20209065     0.85700
O91         O  0.45571370  0.00657930  0.17530997    -0.78400
O92         O  0.43583642  0.96473417  0.18662577    -0.88700
C93         C  0.49616621  0.06655534  0.20457374     0.85300
O94         O  0.43786720  0.96749931  0.26478534    -0.66900
O95         O  0.56353845  0.01459998  0.28547381    -0.86100
C96         C  0.43659762  0.99393392  0.27067084     0.86100
C97         C  0.43753505  0.98801180  0.16831311     1.07700
H98         H  0.49935123  0.01785083  0.27974828     0.39500
O99         O  0.50868678  0.01182647  0.25658324    -1.08800
O100        O  0.54529195  0.97039597  0.22236745    -0.65500
Ni101      Ni  0.51527357  0.97179382  0.26005194     1.26300
O102        O  0.45176073  0.01154307  0.25293745    -0.65700
O103        O  0.54154428  0.97462200  0.30048420    -0.78000
C104        C  0.49930097  0.91631530  0.27413314     0.85500
O105        O  0.51966239  0.93161330  0.26414161    -0.65100
Ni106      Ni  0.54046326  0.03594288  0.24943257     1.27400
Ni107      Ni  0.48190320  0.00966378  0.21605649     1.26100
H108        H  0.49769060  0.96379802  0.19667808     0.40000
O109        O  0.93434338  0.01337277  0.29117163    -0.79900
O110        O  0.05526373  0.02498410  0.21504191    -0.64600
O111        O  0.98117873  0.00463864  0.24296143    -1.11200
C112        C  0.02386235  0.93849778  0.32532968     1.06900
O113        O  0.07678773  0.98305002  0.22144219    -0.77800
O114        O  0.03414165  0.94593343  0.22182271    -0.65400
Ni115      Ni  0.95547196  0.03531144  0.25479751     1.34900
C116        C  0.00863109  0.93886439  0.22478941     0.85700
O117        O  0.00529763  0.03754214  0.18732089    -0.78400
O118        O  0.97142637  0.06130910  0.21790533    -0.88700
C119        C  0.07570834  0.00828094  0.20855008     0.85300
O120        O  0.97888881  0.04889748  0.29463202    -0.66900
O121        O  0.04220961  0.93629173  0.29888521    -0.86100
C122        C  0.00427819  0.05615362  0.29039521     0.86100
C123        C  0.98805452  0.05812293  0.18963199     1.07700
H124        H  0.03778068  0.00312847  0.29125727     0.39500
O125        O  0.03022745  0.99179451  0.27097629    -1.08800
O126        O  0.99222008  0.94857682  0.25064491    -0.65500
Ni127      Ni  0.99305637  0.98098884  0.28452868     1.26300
O128        O  0.01945955  0.04768072  0.26253389    -0.65700
O129        O  0.00555189  0.95822319  0.32614178    -0.78000
C130        C  0.93487346  0.98786841  0.30295079     0.85500
O131        O  0.95577534  0.97133487  0.29804598    -0.65100
Ni132      Ni  0.05700690  0.96178004  0.26026177     1.27400
Ni133      Ni  0.01822297  0.01515809  0.22906444     1.26100
H134        H  0.97317826  0.99353443  0.22267114     0.40000
O135        O  0.02271734  0.56552775  0.28491041    -0.79900
O136        O  0.03029960  0.44077481  0.22930370    -0.64600
O137        O  0.01244592  0.51924978  0.23643491    -1.11200
C138        C  0.93775554  0.48590730  0.31211479     1.06900
O139        O  0.98670736  0.43147603  0.21240149    -0.77800
O140        O  0.94779411  0.47421163  0.21267895    -0.65400
Ni141      Ni  0.04163565  0.54631252  0.24320206     1.34900
C142        C  0.94337006  0.50076925  0.21274492     0.85700
O143        O  0.05156072  0.48547899  0.19647246    -0.78400
O144        O  0.06376622  0.53079471  0.20136360    -0.88700
C145        C  0.01278776  0.42497403  0.21325734     0.85300
O146        O  0.06332290  0.52540336  0.27980139    -0.66900
O147        O  0.93877119  0.46503029  0.28919914    -0.86100
C148        C  0.06417230  0.49960467  0.29005709     0.86100
C149        C  0.06605248  0.50636013  0.18624967     1.07700
H150        H  0.00014731  0.46720638  0.29139592     0.39500
O151        O  0.99277801  0.47473098  0.26764701    -1.08800
O152        O  0.95517072  0.51723378  0.23613076    -0.65500
Ni153      Ni  0.98399845  0.51370710  0.27474481     1.26300
O154        O  0.04912656  0.48070236  0.27476179    -0.65700
O155        O  0.95543108  0.50596279  0.31197335    -0.78000
C156        C  0.99690903  0.56978187  0.29328101     0.85500
O157        O  0.97781030  0.55309966  0.28303879    -0.65100
Ni158      Ni  0.96396212  0.45004255  0.25111539     1.27400
Ni159      Ni  0.02257488  0.48014140  0.23278423     1.26100
H160        H  0.00332284  0.52442367  0.21270912     0.40000
C161        C  0.88426175  0.50901549  0.13775174     0.19600
C162        C  0.87850635  0.49788168  0.10154402    -0.18400
C163        C  0.85371906  0.50545512  0.08216689    -0.10700
C164        C  0.83389360  0.52400312  0.09901839     0.21900
C165        C  0.83969373  0.53518454  0.13516201    -0.20100
C166        C  0.86468031  0.52800502  0.15422501    -0.10900
C167        C  0.80594880  0.52993192  0.08138873    -0.15100
C168        C  0.80159306  0.53049649  0.04334571    -0.28900
C169        C  0.90912648  0.49815111  0.15943330    -0.03200
C170        C  0.92236414  0.51336173  0.18615054    -0.39700
H171        H  0.89299565  0.48283747  0.08854499     0.13000
H172        H  0.84958051  0.49577974  0.05483629     0.12700
H173        H  0.82457416  0.54914348  0.14901012     0.12100
H174        H  0.86795215  0.53631983  0.18258852     0.12400
H175        H  0.78853424  0.53384253  0.10075937     0.15100
H176        H  0.81967499  0.52847919  0.02474478     0.13900
H177        H  0.91619132  0.47657869  0.15392202     0.11500
H178        H  0.91647458  0.53542583  0.19028473     0.13600
C179        C  0.88094410  0.50879737  0.38470451     0.19600
C180        C  0.86744848  0.53469999  0.39266122    -0.18400
C181        C  0.84317932  0.53571973  0.41518768    -0.10700
C182        C  0.83197960  0.51072185  0.43037526     0.21900
C183        C  0.84571000  0.48487527  0.42291967    -0.20100
C184        C  0.86991764  0.48384365  0.40036831    -0.10900
C185        C  0.80767390  0.51101111  0.45688241    -0.15100
C186        C  0.78874167  0.53232395  0.45903653    -0.28900
C187        C  0.90649703  0.50859061  0.36025731    -0.03200
C188        C  0.91421907  0.48600659  0.33943793    -0.39700
H189        H  0.87570476  0.55422769  0.38136305     0.13000
H190        H  0.83379754  0.55617088  0.42144952     0.12700
H191        H  0.83784997  0.46541287  0.43497569     0.12100
H192        H  0.88019728  0.46352676  0.39611268     0.12400
H193        H  0.80552952  0.49318322  0.47632816     0.15100
H194        H  0.78839655  0.54911991  0.43780703     0.13900
H195        H  0.91807978  0.52806208  0.35725765     0.11500
H196        H  0.90157653  0.46715705  0.34007973     0.13600
C197        C  0.68166500  0.54086568  0.40639531     0.19600
C198        C  0.65624760  0.55612387  0.40206040    -0.18400
C199        C  0.63768002  0.55001514  0.37233544    -0.10700
C200        C  0.64408460  0.52826511  0.34626793     0.21900
C201        C  0.66995663  0.51371220  0.34978010    -0.20100
C202        C  0.68860061  0.51993732  0.37936351    -0.10900
C203        C  0.62316975  0.51790518  0.31817480    -0.15100
C204        C  0.60078263  0.53314266  0.30559327    -0.28900
C205        C  0.69847939  0.54499677  0.44178371    -0.03200
C206        C  0.72554973  0.53665838  0.44608863    -0.39700
H207        H  0.65022479  0.57216318  0.42264040     0.13000
H208        H  0.61775100  0.56134153  0.37128445     0.12700
H209        H  0.67533466  0.49670203  0.33033835     0.12100
H210        H  0.70760846  0.50721433  0.38202893     0.12400
H211        H  0.62596753  0.49629835  0.30825734     0.15100
H212        H  0.59829608  0.55524418  0.31324722     0.13900
H213        H  0.68763942  0.55473342  0.46579654     0.11500
H214        H  0.73737482  0.52877669  0.42175899     0.13600
C215        C  0.16580205  0.49179486  0.42212142     0.19600
C216        C  0.15094161  0.46939481  0.40574445    -0.18400
C217        C  0.12967692  0.47470918  0.37883808    -0.10700
C218        C  0.12244982  0.50260700  0.36794829     0.21900
C219        C  0.13672988  0.52491777  0.38527557    -0.20100
C220        C  0.15799239  0.51959471  0.41210351    -0.10900
C221        C  0.10106811  0.50965127  0.33794225    -0.15100
C222        C  0.08389367  0.49098361  0.32105100    -0.28900
C223        C  0.18983708  0.48712589  0.44896789    -0.03200
C224        C  0.20494377  0.46280480  0.45067654    -0.39700
H225        H  0.15557033  0.44766195  0.41351197     0.13000
H226        H  0.11942978  0.45677664  0.36644104     0.12700
H227        H  0.13165767  0.54664823  0.37768312     0.12100
H228        H  0.16883377  0.53729905  0.42441649     0.12400
H229        H  0.09963278  0.53167215  0.32901617     0.15100
H230        H  0.08423514  0.46892396  0.32947465     0.13900
H231        H  0.19680731  0.50506334  0.46547744     0.11500
H232        H  0.20008882  0.44569875  0.43143277     0.13600
C233        C  0.13038170  0.50661225  0.11914091     0.19600
C234        C  0.15900676  0.51144814  0.12546261    -0.18400
C235        C  0.17941262  0.50114251  0.09990851    -0.10700
C236        C  0.17145553  0.48603945  0.06721818     0.21900
C237        C  0.14279214  0.48181187  0.06050234    -0.20100
C238        C  0.12246693  0.49215287  0.08590208    -0.10900
C239        C  0.19213538  0.47326389  0.04021948    -0.15100
C240        C  0.21855169  0.48230744  0.03508683    -0.28900
C241        C  0.10927639  0.51583741  0.14819634    -0.03200
C242        C  0.08609596  0.50079580  0.15488753    -0.39700
H243        H  0.16565078  0.52245279  0.15086832     0.13000
H244        H  0.20130601  0.50432286  0.10653308     0.12700
H245        H  0.13607446  0.47040788  0.03544079     0.12100
H246        H  0.10056922  0.48873921  0.07941384     0.12400
H247        H  0.18499853  0.45568497  0.02318856     0.15100
H248        H  0.22641556  0.49945704  0.05219686     0.13900
H249        H  0.11408174  0.53350640  0.16663704     0.11500
H250        H  0.08276738  0.48158702  0.13877565     0.13600
C251        C  0.32689103  0.46710374  0.08633937     0.19600
C252        C  0.34924679  0.44853323  0.09562262    -0.18400
C253        C  0.37024563  0.45636449  0.12117831    -0.10700
C254        C  0.36954811  0.48323192  0.13834386     0.21900
C255        C  0.34687004  0.50168775  0.12955817    -0.20100
C256        C  0.32577574  0.49379562  0.10388956    -0.10900
C257        C  0.39254381  0.49341446  0.16378278    -0.15100
C258        C  0.41418616  0.47713586  0.17681095    -0.28900
C259        C  0.30694970  0.45836644  0.05588342    -0.03200
C260        C  0.28185824  0.47086910  0.04784640    -0.39700
H261        H  0.35084007  0.42792088  0.08235632     0.13000
H262        H  0.38722511  0.44139080  0.12625807     0.12700
H263        H  0.34574485  0.52258416  0.14204021     0.12100
H264        H  0.30928267  0.50900124  0.09702868     0.12400
H265        H  0.39177971  0.51559359  0.17172701     0.15100
H266        H  0.41534736  0.45478425  0.17043281     0.13900
H267        H  0.31365141  0.44030648  0.03896493     0.11500
H268        H  0.27376615  0.48771495  0.06582900     0.13600
C269        C  0.48973717  0.17538187  0.08403599     0.19600
C270        C  0.47234818  0.15187273  0.08753511    -0.18400
C271        C  0.47708531  0.13152646  0.11599907    -0.10700
C272        C  0.49954033  0.13409586  0.14181693     0.21900
C273        C  0.51676895  0.15782275  0.13869273    -0.20100
C274        C  0.51187313  0.17837623  0.11025944    -0.10900
C275        C  0.50699096  0.11111280  0.16960885    -0.15100
C276        C  0.48823729  0.09234779  0.18264497    -0.28900
C277        C  0.48584676  0.19421003  0.05015149    -0.03200
C278        C  0.49548681  0.22075388  0.04689292    -0.39700
H279        H  0.45542814  0.14877771  0.06738373     0.13000
H280        H  0.46385883  0.11319036  0.11637884     0.12700
H281        H  0.53445811  0.16013662  0.15779583     0.12100
H282        H  0.52617960  0.19579952  0.10790138     0.12400
H283        H  0.52878715  0.10906461  0.17857306     0.15100
H284        H  0.46619168  0.09499038  0.17532795     0.13900
H285        H  0.47744691  0.18486623  0.52308427     0.11500
H286        H  0.50511822  0.23093834  0.07115048     0.13600
C287        C  0.51737731  0.38153310  0.35222879     0.19600
C288        C  0.53051803  0.37567840  0.38735701    -0.18400
C289        C  0.52518910  0.35050159  0.40710656    -0.10700
C290        C  0.50702683  0.33045984  0.39156613     0.21900
C291        C  0.49419022  0.33616407  0.35626870    -0.20100
C292        C  0.49908258  0.36150222  0.33691569    -0.10900
C293        C  0.50298132  0.30244676  0.40974574    -0.15100
C294        C  0.50226949  0.29850721  0.44787155    -0.28900
C295        C  0.52487013  0.40736604  0.33044650    -0.03200
C296        C  0.50692989  0.42036810  0.30607095    -0.39700
H297        H  0.54512946  0.39050535  0.39934089     0.13000
H298        H  0.53606344  0.34628873  0.43374801     0.12700
H299        H  0.48054391  0.32079803  0.34343018     0.12100
H300        H  0.48936951  0.36481324  0.30927188     0.12400
H301        H  0.50007860  0.28476055  0.39068763     0.15100
H302        H  0.50299592  0.31696888  0.46592835     0.13900
H303        H  0.54594996  0.41540650  0.33390647     0.11500
H304        H  0.48540259  0.41329976  0.30411003     0.13600
C305        C  0.51038584  0.37968452  0.11015730     0.19600
C306        C  0.48699260  0.36223925  0.10673890    -0.18400
C307        C  0.48816553  0.33804783  0.08385714    -0.10700
C308        C  0.51286557  0.33081906  0.06366928     0.21900
C309        C  0.53609109  0.34851997  0.06663064    -0.20100
C310        C  0.53494983  0.37262916  0.08959099    -0.10900
C311        C  0.51449194  0.30660940  0.03670354    -0.15100
C312        C  0.49630019  0.28518146  0.03628724    -0.28900
C313        C  0.50825799  0.40523890  0.13480848    -0.03200
C314        C  0.53073540  0.41687753  0.15140629    -0.39700
H315        H  0.46769758  0.36735709  0.12184817     0.13000
H316        H  0.46943560  0.32561401  0.08136064     0.12700
H317        H  0.55514943  0.34384908  0.05073393     0.12100
H318        H  0.55314042  0.38597207  0.09036360     0.12400
H319        H  0.53107530  0.30674363  0.01533047     0.15100
H320        H  0.48132375  0.28261692  0.05936227     0.13900
H321        H  0.48740502  0.41353214  0.14160670     0.11500
H322        H  0.55145093  0.40739328  0.14736073     0.13600
C323        C  0.53081948  0.85970696  0.34170749     0.19600
C324        C  0.55315744  0.83984535  0.34290768    -0.18400
C325        C  0.55530452  0.82018740  0.37312053    -0.10700
C326        C  0.53547837  0.82071163  0.40298546     0.21900
C327        C  0.51347491  0.84076629  0.40184204    -0.20100
C328        C  0.51103347  0.85987679  0.37157205    -0.10900
C329        C  0.53839059  0.80302619  0.43788928    -0.15100
C330        C  0.54788791  0.77602460  0.43880593    -0.28900
C331        C  0.52894897  0.88144650  0.31085780    -0.03200
C332        C  0.50381070  0.89075362  0.29788980    -0.39700
H333        H  0.56893953  0.83963227  0.32058861     0.13000
H334        H  0.57293100  0.80539773  0.37387438     0.12700
H335        H  0.49825900  0.84192470  0.42486173     0.12100
H336        H  0.49412224  0.87548672  0.37234766     0.12400
H337        H  0.53063879  0.81250272  0.46417102     0.15100
H338        H  0.55328005  0.76523444  0.41243744     0.13900
H339        H  0.54816560  0.89066233  0.30012552     0.11500
H340        H  0.48496871  0.88013591  0.30738248     0.13600
C341        C  0.52978205  0.62079360  0.14271865     0.19600
C342        C  0.54802994  0.62033374  0.11116946    -0.18400
C343        C  0.55124126  0.64456633  0.08838278    -0.10700
C344        C  0.53659174  0.66980452  0.09737577     0.21900
C345        C  0.51907513  0.67035418  0.12962554    -0.20100
C346        C  0.51557505  0.64616153  0.15192684    -0.10900
C347        C  0.53979678  0.69646746  0.07535753    -0.15100
C348        C  0.54734658  0.69797135  0.03830640    -0.28900
C349        C  0.52618593  0.59505137  0.16657303    -0.03200
C350        C  0.50106190  0.58876240  0.18169883    -0.39700
H351        H  0.55954808  0.60113327  0.10394297     0.13000
H352        H  0.56555401  0.64361626  0.06437129     0.12700
H353        H  0.50793509  0.68962547  0.13757975     0.12100
H354        H  0.50207539  0.64747646  0.17680169     0.12400
H355        H  0.53403280  0.71587625  0.09009654     0.15100
H356        H  0.55121575  0.67878867  0.02216666     0.13900
H357        H  0.54420922  0.58105102  0.17133579     0.11500
H358        H  0.48282525  0.60188474  0.17448055     0.13600
C359        C  0.51374052  0.62056005  0.37792512     0.19600
C360        C  0.53787172  0.63712082  0.37605191    -0.18400
C361        C  0.54103676  0.66029903  0.40012136    -0.10700
C362        C  0.52007012  0.66742958  0.42692529     0.21900
C363        C  0.49607552  0.65060606  0.42920596    -0.20100
C364        C  0.49283141  0.62745671  0.40489645    -0.10900
C365        C  0.52339465  0.69081049  0.45475737    -0.15100
C366        C  0.54198978  0.71178609  0.45086287    -0.28900
C367        C  0.51185585  0.59599239  0.35183560    -0.03200
C368        C  0.48763024  0.58428770  0.34050366    -0.39700
H369        H  0.55445541  0.63206177  0.35584112     0.13000
H370        H  0.56029014  0.67198055  0.39818934     0.12700
H371        H  0.47985849  0.65526541  0.45010923     0.12100
H372        H  0.47430067  0.61474005  0.40791653     0.12400
H373        H  0.50989905  0.69075050  0.47979823     0.15100
H374        H  0.55367301  0.71419079  0.42448536     0.13900
H375        H  0.53147222  0.58850479  0.33916976     0.11500
H376        H  0.46758584  0.59241554  0.35089167     0.13600
C377        C  0.13958101  0.01079843  0.14004597     0.19600
C378        C  0.16302464  0.99317171  0.13287440    -0.18400
C379        C  0.18187194  0.99937206  0.10340149    -0.10700
C380        C  0.17765604  0.02350733  0.08019677     0.21900
C381        C  0.15453361  0.04145011  0.08792384    -0.20100
C382        C  0.13567095  0.03521800  0.11731593    -0.10900
C383        C  0.19522447  0.02970299  0.04592645    -0.15100
C384        C  0.21955460  0.01621366  0.03716778    -0.28900
C385        C  0.11873342  0.00173585  0.16928974    -0.03200
C386        C  0.09841012  0.01878100  0.18366767    -0.39700
H387        H  0.16645148  0.97410494  0.14964095     0.13000
H388        H  0.19900069  0.98457342  0.09834956     0.12700
H389        H  0.15055901  0.06004411  0.07040264     0.12100
H390        H  0.11760058  0.04910659  0.12089297     0.12400
H391        H  0.18297842  0.04223104  0.52431213     0.15100
H392        H  0.22878284  0.00107445  0.05695144     0.13900
H393        H  0.11973351  0.97977846  0.17856787     0.11500
H394        H  0.09728203  0.04094244  0.17571210     0.13600
C395        C  0.37488734  0.99883373  0.34219018     0.19600
C396        C  0.36379043  0.98085087  0.37016942    -0.18400
C397        C  0.34003870  0.98899431  0.39121808    -0.10700
C398        C  0.32676372  0.01540838  0.38459767     0.21900
C399        C  0.33775637  0.03332278  0.35646972    -0.22900
C400        C  0.36160002  0.02523317  0.33554299    -0.10900
C401        C  0.30069525  0.02433582  0.40500678    -0.15100
C402        C  0.29368853  0.01443813  0.43975374    -0.28900
C403        C  0.39863216  0.98828329  0.31826565    -0.03200
C404        C  0.41581316  0.00521876  0.29834554    -0.39700
H405        H  0.37328872  0.96019712  0.37535322     0.13000
H406        H  0.33170749  0.97412881  0.41168389     0.12700
H407        H  0.32768541  0.05357401  0.35040211     0.12100
H408        H  0.36885639  0.03931263  0.31334600     0.12400
H409        H  0.28734309  0.04029917  0.39142127     0.15100
H410        H  0.30784020  0.99989229  0.45449678     0.13900
H411        H  0.40170876  0.96550252  0.31649379     0.11500
H412        H  0.41403264  0.02800962  0.30117408     0.13600
C413        C  0.37164216  0.98781900  0.10470203     0.19600
C414        C  0.34369520  0.98032692  0.11158414    -0.18400
C415        C  0.32239846  0.98834187  0.08602436    -0.10700
C416        C  0.32881640  0.00375980  0.05273654     0.21900
C417        C  0.35682415  0.01086780  0.04566161    -0.20100
C418        C  0.37806150  0.00284168  0.07113558    -0.10900
C419        C  0.30715817  0.01360597  0.02506341    -0.15100
C420        C  0.28135006  0.00278115  0.02200516    -0.28900
C421        C  0.39349733  0.97977902  0.13312686    -0.03200
C422        C  0.41718796  0.99445501  0.13769036    -0.39700
H423        H  0.33823603  0.96874565  0.13724393     0.13000
H424        H  0.30103371  0.98293724  0.09302044     0.12700
H425        H  0.36234527  0.02259251  0.02014040     0.12100
H426        H  0.39944926  0.00823310  0.06415616     0.12400
H427        H  0.31329644  0.03478359  0.50809425     0.15100
H428        H  0.27451282  0.98627980  0.04125445     0.13900
H429        H  0.38904976  0.96246480  0.15262366     0.11500
H430        H  0.42096029  0.01309300  0.12037032     0.13600
C431        C  0.86331525  0.98185561  0.35436213     0.19600
C432        C  0.84569586  0.00144570  0.37321314    -0.18400
C433        C  0.82454080  0.99224744  0.39791426    -0.10700
C434        C  0.82053498  0.96318074  0.40394898     0.21900
C435        C  0.83732346  0.94366154  0.38383814    -0.20100
C436        C  0.85826260  0.95282442  0.35897749    -0.10900
C437        C  0.80123375  0.95241082  0.43369728    -0.15100
C438        C  0.77800037  0.96631053  0.44576718    -0.28900
C439        C  0.88708512  0.99237152  0.33096799    -0.03200
C440        C  0.91049411  0.97677184  0.32395344    -0.39700
H441        H  0.84898724  0.02392633  0.36992889     0.13000
H442        H  0.81229905  0.00788140  0.41348477     0.12700
H443        H  0.83450679  0.92116673  0.38784838     0.12100
H444        H  0.87053077  0.93703328  0.34379025     0.12400
H445        H  0.80651174  0.93193262  0.44622662     0.15100
H446        H  0.77104960  0.98560378  0.43149790     0.13900
H447        H  0.88599625  0.01421127  0.32120608     0.11500
H448        H  0.91255094  0.95538855  0.33505047     0.13600
C449        C  0.65561939  0.97846749  0.06612095     0.19600
C450        C  0.63990527  0.95626346  0.08175257    -0.18400
C451        C  0.61840813  0.96186521  0.10818245    -0.10700
C452        C  0.61211905  0.98983209  0.11936222     0.21900
C453        C  0.62702689  0.01193667  0.10229461    -0.20100
C454        C  0.64840203  0.00633785  0.07592015    -0.10900
C455        C  0.59083673  0.99735275  0.14901127    -0.15100
C456        C  0.57679196  0.97883855  0.17107311    -0.28900
C457        C  0.68032650  0.97354628  0.04083861    -0.03200
C458        C  0.69612367  0.94972845  0.04217689    -0.39700
H459        H  0.64417752  0.93454174  0.07378937     0.13000
H460        H  0.60709312  0.94418253  0.11973727     0.12700
H461        H  0.62253448  0.03371048  0.10999245     0.12100
H462        H  0.65995841  0.02384862  0.06406304     0.12400
H463        H  0.58734661  0.01981763  0.15390266     0.15100
H464        H  0.57967665  0.95623815  0.16756411     0.13900
H465        H  0.68765113  0.99127911  0.02394127     0.11500
H466        H  0.69083395  0.93306444  0.06219398     0.13600
C467        C  0.62929344  0.98796625  0.36502859     0.19600
C468        C  0.64855864  0.00747328  0.37910175    -0.18400
C469        C  0.66891579  0.99911677  0.40600186    -0.10700
C470        C  0.67053217  0.97089814  0.41891772     0.21900
C471        C  0.65174251  0.95132908  0.40406413    -0.20100
C472        C  0.63157587  0.95961272  0.37718229    -0.10900
C473        C  0.69065550  0.96093787  0.44864787    -0.15100
C474        C  0.71477527  0.97375624  0.45733616    -0.28900
C475        C  0.60728882  0.99754927  0.33744546    -0.03200
C476        C  0.58268830  0.98423066  0.33384247    -0.39700
H477        H  0.64743959  0.02936394  0.36990464     0.13000
H478        H  0.68277198  0.01491798  0.41720640     0.12700
H479        H  0.65272121  0.92941913  0.41322755     0.12100
H480        H  0.61802094  0.94360432  0.36583711     0.12400
H481        H  0.68610666  0.94110342  0.46296547     0.15100
H482        H  0.72137176  0.99207594  0.44114881     0.13900
H483        H  0.61126997  0.01619583  0.32014880     0.11500
H484        H  0.57808404  0.96628251  0.35207680     0.13600
C485        C  0.03001417  0.15702299  0.41496157     0.19600
C486        C  0.03910679  0.15387655  0.37709940    -0.18400
C487        C  0.03136555  0.13051134  0.35569246    -0.10700
C488        C  0.01417404  0.10966956  0.37170166     0.21900
C489        C  0.00534078  0.11256559  0.40980509    -0.20100
C490        C  0.01329140  0.13594657  0.43140515    -0.10900
C491        C  0.00317299  0.08628994  0.34817779    -0.15100
C492        C  0.01675980  0.07633468  0.31716777    -0.28900
C493        C  0.03584036  0.18402382  0.43445277    -0.03200
C494        C  0.03578664  0.18751003  0.47257117    -0.39700
H495        H  0.05163371  0.17002488  0.36362021     0.13000
H496        H  0.03783210  0.12963690  0.32608177     0.12700
H497        H  0.99175296  0.09701605  0.42259860     0.12100
H498        H  0.00522652  0.13804900  0.46018134     0.12400
H499        H  0.98305204  0.07749970  0.35616226     0.15100
H500        H  0.03763205  0.08372901  0.31033551     0.13900
H501        H  0.03955739  0.20210244  0.41603753     0.11500
H502        H  0.03294160  0.16943582  0.49120335     0.13600
C503        C  0.98699292  0.16812127  0.07518968     0.19600
C504        C  0.98463792  0.13979172  0.06444273    -0.18400
C505        C  0.97997649  0.11894831  0.09199924    -0.10700
C506        C  0.97713392  0.12623760  0.13075096     0.21900
C507        C  0.97751170  0.15484216  0.14107853    -0.20100
C508        C  0.98271597  0.17565284  0.11357731    -0.10900
C509        C  0.97460749  0.10438001  0.16096872    -0.15100
C510        C  0.98831501  0.07933446  0.15867830    -0.28900
C511        C  0.99568742  0.18899613  0.04619583    -0.03200
C512        C  0.01589736  0.20760589  0.05356531    -0.39700
H513        H  0.98762203  0.13364835  0.03491090     0.13000
H514        H  0.97888863  0.09714211  0.08299562     0.12700
H515        H  0.97491386  0.16096072  0.17067663     0.12100
H516        H  0.98383982  0.19752106  0.12235126     0.12400
H517        H  0.96319395  0.10985693  0.18688671     0.15100
H518        H  0.00147914  0.07469254  0.13403971     0.13900
H519        H  0.99081044  0.18435678  0.51825270     0.11500
H520        H  0.02379973  0.20960135  0.08252259     0.13600
C521        C  0.03270586  0.31463996  0.09967262     0.19600
C522        C  0.05134845  0.33614557  0.10900621    -0.18400
C523        C  0.04339247  0.35762640  0.13418527    -0.10700
C524        C  0.01645052  0.35807033  0.15077261     0.21900
C525        C  0.99788944  0.33634153  0.14189194    -0.20100
C526        C  0.00588570  0.31477478  0.11667799    -0.10900
C527        C  0.00625905  0.38195911  0.17479428    -0.15100
C528        C  0.02344202  0.39975120  0.19291684    -0.28900
C529        C  0.04117670  0.29438780  0.06931075    -0.03200
C530        C  0.02861879  0.26963501  0.06274573    -0.39700
H531        H  0.07196550  0.33678093  0.09590614     0.13000
H532        H  0.05806648  0.37437439  0.13914883     0.12700
H533        H  0.97688806  0.33639504  0.15386890     0.12100
H534        H  0.99058264  0.29906189  0.10950333     0.12400
H535        H  0.98365780  0.38518416  0.17724972     0.15100
H536        H  0.04601171  0.39618014  0.19256176     0.13900
H537        H  0.05860644  0.30047550  0.05120996     0.11500
H538        H  0.01251721  0.26213506  0.08202207     0.13600
C539        C  0.00645466  0.88022880  0.14828882     0.19600
C540        C  0.02658398  0.86896555  0.12289610    -0.18400
C541        C  0.02126683  0.84447573  0.10214604    -0.10700
C542        C  0.99549244  0.83072248  0.10620170     0.21900
C543        C  0.97525667  0.84208412  0.13122360    -0.20100
C544        C  0.98052201  0.86660414  0.15191142    -0.10900
C545        C  0.98947663  0.80370639  0.08668290    -0.15100
C546        C  0.00226170  0.79509930  0.05432724    -0.28900
C547        C  0.01436365  0.90492510  0.17192092    -0.03200
C548        C  0.99772099  0.91747082  0.19832604    -0.39700
H549        H  0.04684922  0.87878011  0.11974033     0.13000
H550        H  0.03774870  0.83597904  0.08401577     0.12700
H551        H  0.95530636  0.83177379  0.13505502     0.12100
H552        H  0.96432348  0.87418459  0.17108114     0.12400
H553        H  0.97316728  0.79077993  0.09906776     0.15100
H554        H  0.01719838  0.80866250  0.04020081     0.13900
H555        H  0.03574787  0.91225789  0.16865739     0.11500
H556        H  0.97617885  0.91117472  0.20242433     0.13600
C557        C  0.03216335  0.87011854  0.38522156     0.19600
C558        C  0.03361435  0.84138481  0.37530070    -0.18400
C559        C  0.02676655  0.82043458  0.40206519    -0.10700
C560        C  0.01855737  0.82797655  0.43933439     0.21900
C561        C  0.01828385  0.85657626  0.44960613    -0.20100
C562        C  0.02531007  0.87740370  0.42306446    -0.10900
C563        C  0.00854770  0.80707017  0.46772799    -0.15100
C564        C  0.01798492  0.78014001  0.47000533    -0.28900
C565        C  0.03660696  0.89213193  0.35538607    -0.03200
C566        C  0.02270815  0.91718619  0.35622974    -0.39700
H567        H  0.03897799  0.83521614  0.34639564     0.13000
H568        H  0.02682632  0.79857743  0.39309331     0.12700
H569        H  0.01237260  0.86285446  0.47828846     0.12100
H570        H  0.02502857  0.89922582  0.43218896     0.12400
H571        H  0.99315058  0.81454963  0.48840929     0.15100
H572        H  0.03293682  0.77219176  0.44907026     0.13900
H573        H  0.04952414  0.88675900  0.33075594     0.11500
H574        H  0.00805531  0.92163829  0.37931864     0.13600
C575        C  0.99437244  0.67513317  0.41830627     0.19600
C576        C  0.97381551  0.65493840  0.41124864    -0.18400
C577        C  0.97736861  0.63504363  0.38221142    -0.10700
C578        C  0.00175287  0.63485851  0.35941382     0.21900
C579        C  0.02210141  0.65542267  0.36602621    -0.20100
C580        C  0.01851366  0.67537744  0.39510551    -0.10900
C581        C  0.00795807  0.61229649  0.33092296    -0.15100
C582        C  0.98886518  0.59407567  0.31763881    -0.28900
C583        C  0.99085710  0.69359172  0.45225046    -0.03200
C584        C  0.00481936  0.71769905  0.45812533    -0.39700
H585        H  0.95516973  0.65407174  0.42897732     0.13000
H586        H  0.96141585  0.61929291  0.37901313     0.12700
H587        H  0.04123892  0.65559840  0.34924516     0.12100
H588        H  0.03519898  0.69009140  0.40018832     0.12400
H589        H  0.02959515  0.61013608  0.32124163     0.15100
H590        H  0.96690344  0.59624382  0.32548329     0.13900
H591        H  0.97572929  0.68683659  0.47350430     0.11500
H592        H  0.01836959  0.72603087  0.43605741     0.13600
N593        N  0.00339313  0.76009601  0.00020822    -0.02500
C594        C  0.99667608  0.73259116  0.99595783     0.00100
C595        C  0.99254489  0.72210344  0.52871876    -0.22800
C596        C  0.99310049  0.74332926  0.55533415    -0.23000
C597        C  0.00275178  0.76714120  0.53671291     0.00000
H598        H  0.98669051  0.70049013  0.53430500     0.13700
H599        H  0.98800696  0.74114079  0.58532339     0.13800
N600        N  0.02998335  0.22375690  0.52519548    -0.02500
C601        C  0.03749996  0.25101041  0.52976400     0.00100
C602        C  0.04912304  0.26172059  0.99623344    -0.22800
C603        C  0.04985619  0.23958656  0.97093249    -0.23000
C604        C  0.03682249  0.21707499  0.98871361     0.00000
H605        H  0.05709951  0.28261291  0.99077825     0.13700
H606        H  0.05937044  0.24005712  0.94287590     0.13800
N607        N  0.73179729  0.95791675  0.98888042    -0.02500
C608        C  0.76007015  0.95358958  0.98626991     0.00100
C609        C  0.77249223  0.93951588  0.50845042    -0.22800
C610        C  0.75076901  0.93486018  0.53354617    -0.23000
C611        C  0.72740443  0.94866535  0.51870011     0.00000
H612        H  0.79401126  0.93220824  0.51198881     0.13700
H613        H  0.75210016  0.92339707  0.56034374     0.13800
N614        N  0.26194544  0.01775125  0.49705046    -0.02500
C615        C  0.23447538  0.02414925  0.50314267     0.00100
C616        C  0.22294429  0.03270675  0.96754601    -0.22800
C617        C  0.24370562  0.03203254  0.93994915    -0.23000
C618        C  0.26739760  0.02013299  0.95694390     0.00000
H619        H  0.20145546  0.03986761  0.96329892     0.13700
H620        H  0.24123758  0.03831000  0.91035742     0.13800
N621        N  0.54675600  0.73006697  0.98002632    -0.02500
C622        C  0.55031131  0.75811419  0.97391330     0.00100
C623        C  0.55313717  0.77319496  0.51100870    -0.22800
C624        C  0.55180833  0.75224525  0.53824353    -0.23000
C625        C  0.54749712  0.72719774  0.51904231     0.00000
H626        H  0.55653232  0.79536011  0.51647205     0.13700
H627        H  0.55428305  0.75503509  0.56871233     0.13800
N628        N  0.49911889  0.26459780  0.50418696    -0.02500
C629        C  0.49669203  0.23619829  0.50838638     0.00100
C630        C  0.49181889  0.22394439  0.97438114    -0.22800
C631        C  0.49281720  0.24528317  0.94761947    -0.23000
C632        C  0.49544392  0.27039161  0.96747777     0.00000
H633        H  0.49047679  0.20163589  0.96817444     0.13700
H634        H  0.49172349  0.24234621  0.91705910     0.13800
N635        N  0.23773321  0.47070836  0.50745305    -0.02500
C636        C  0.26498348  0.46330856  0.51452821     0.00100
C637        C  0.27538504  0.44678543  0.98334222    -0.22800
C638        C  0.25366734  0.44383430  0.95790396    -0.23000
C639        C  0.23069301  0.45781206  0.97329400     0.00000
H640        H  0.29665202  0.43901400  0.97902762     0.13700
H641        H  0.25483183  0.43354084  0.93038471     0.13800
N642        N  0.76750509  0.53265677  0.98770555    -0.02500
C643        C  0.73954083  0.53749243  0.98333603     0.00100
C644        C  0.72669483  0.53762977  0.51913429    -0.22800
C645        C  0.74740019  0.53443932  0.54647620    -0.23000
C646        C  0.77275194  0.53179727  0.52715019     0.00000
H647        H  0.70437514  0.53933810  0.52470870     0.13700
H648        H  0.74394983  0.53379144  0.57700025     0.13800
O649        O  0.57593258  0.49340762  0.77951308    -0.79900
O650        O  0.45615936  0.47007386  0.71034491    -0.64600
O651        O  0.53085569  0.49545475  0.72632599    -1.11200
C652        C  0.48584651  0.56199777  0.80955349     1.06900
O653        O  0.43712391  0.51322464  0.70730869    -0.77800
O654        O  0.46940028  0.55890240  0.71651249    -0.65400
Ni655      Ni  0.56008825  0.46921113  0.74082033     1.34900
C656        C  0.49461871  0.56390352  0.70720964     0.85700
O657        O  0.50564921  0.45497030  0.68053467    -0.78400
O658        O  0.54848341  0.44251030  0.70262145    -0.88700
C659        C  0.43655468  0.48690699  0.69996523     0.85300
O660        O  0.53950146  0.44993070  0.77972956    -0.66900
O661        O  0.46255938  0.55567449  0.79414686    -0.86100
C662        C  0.51400993  0.44243368  0.78002138     0.86100
C663        C  0.52776093  0.43932181  0.68002177     1.07700
H664        H  0.47996860  0.49798957  0.78085567     0.39500
O665        O  0.48368920  0.50824309  0.75751312    -1.08800
O666        O  0.51586890  0.55109281  0.72192143    -0.65500
Ni667      Ni  0.52032452  0.52349345  0.76276447     1.26300
O668        O  0.49575094  0.45208495  0.75667397    -0.65700
O669        O  0.50933921  0.55106520  0.79967099    -0.78000
C670        C  0.57676399  0.52021786  0.78276094     0.85500
O671        O  0.55781536  0.53624252  0.76857137    -0.65100
Ni672      Ni  0.45194164  0.53319280  0.75077682     1.27400
Ni673      Ni  0.49387430  0.48160452  0.71860309     1.26100
H674        H  0.53679935  0.50454859  0.70297166     0.40000
O675        O  0.47488316  0.92284979  0.76576557    -0.79900
O676        O  0.47919998  0.04779083  0.70891183    -0.64600
O677        O  0.48976372  0.96815039  0.71731562    -1.11200
C678        C  0.56278120  0.99078386  0.80295984     1.06900
O679        O  0.52440789  0.05845033  0.70786229    -0.77800
O680        O  0.55875711  0.01256459  0.70572111    -0.65400
Ni681      Ni  0.45803841  0.94427153  0.72439694     1.34900
C682        C  0.56020658  0.98619616  0.69918216     0.85700
O683        O  0.45707299  0.00490611  0.67284673    -0.78400
O684        O  0.43776101  0.96259307  0.68321563    -0.88700
C685        C  0.49880531  0.06418793  0.69984689     0.85300
O686        O  0.43840137  0.96673979  0.76120170    -0.66900
O687        O  0.56466293  0.01390406  0.78421479    -0.86100
C688        C  0.43774600  0.99313586  0.76751400     0.86100
C689        C  0.43928439  0.98606082  0.66526179     1.07700
H690        H  0.50165499  0.01604206  0.77644126     0.39500
O691        O  0.51083783  0.00997118  0.75319044    -1.08800
O692        O  0.54671085  0.96794240  0.71853429    -0.65500
Ni693      Ni  0.51715358  0.96989577  0.75691910     1.26300
O694        O  0.45373942  0.01042417  0.75053328    -0.65700
O695        O  0.54405091  0.97264136  0.79673498    -0.78000
C696        C  0.50010494  0.91516910  0.77277854     0.85500
O697        O  0.52080530  0.92961738  0.76161530    -0.65100
Ni698      Ni  0.54251476  0.03412943  0.74597925     1.27400
Ni699      Ni  0.48364633  0.00795635  0.71318718     1.26100
H700        H  0.49881274  0.96195411  0.69400818     0.40000
O701        O  0.93474996  0.01153609  0.79534867    -0.79900
O702        O  0.05427334  0.02315112  0.71435611    -0.64600
O703        O  0.98091217  0.00254823  0.74551122    -1.11200
C704        C  0.02461818  0.93814832  0.82763940     1.06900
O705        O  0.07778622  0.98266352  0.72489088    -0.77800
O706        O  0.03442413  0.94610013  0.72360458    -0.65400
Ni707      Ni  0.95504468  0.03310675  0.75721848     1.34900
C708        C  0.00941429  0.93774364  0.72793556     0.85700
O709        O  0.00367129  0.03439313  0.68787778    -0.78400
O710        O  0.97016525  0.05859150  0.71868342    -0.88700
C711        C  0.07569746  0.00726835  0.71012285     0.85300
O712        O  0.97912069  0.04770437  0.79569739    -0.66900
O713        O  0.04186410  0.93513532  0.80005403    -0.86100
C714        C  0.00426075  0.05538604  0.79018374     0.86100
C715        C  0.98657207  0.05509311  0.69015265     1.07700
H716        H  0.03829031  0.00308893  0.79230037     0.39500
O717        O  0.03059924  0.99118860  0.77273434    -1.08800
O718        O  0.99334254  0.94682073  0.75468144    -0.65500
Ni719      Ni  0.99384103  0.98007775  0.78752209     1.26300
O720        O  0.01897056  0.04666400  0.76198446    -0.65700
O721        O  0.00750252  0.95879899  0.82971201    -0.78000
C722        C  0.93593659  0.98620362  0.80795297     0.85500
O723        O  0.95695320  0.96991825  0.80240825    -0.65100
Ni724      Ni  0.05733819  0.96106288  0.76254658     1.27400
Ni725      Ni  0.01760253  0.01323228  0.73008726     1.26100
H726        H  0.97269864  0.99089864  0.72596197     0.40000
O727        O  0.02385031  0.56422972  0.78593565    -0.79900
O728        O  0.03063828  0.43987416  0.72925857    -0.64600
O729        O  0.01340764  0.51844749  0.73660318    -1.11200
C730        C  0.93853088  0.48553673  0.81268706     1.06900
O731        O  0.98689761  0.43083021  0.71270690    -0.77800
O732        O  0.94749809  0.47321296  0.71409649    -0.65400
Ni733      Ni  0.04263239  0.54531843  0.74386331     1.34900
C734        C  0.94366053  0.49985916  0.71319825     0.85700
O735        O  0.05251167  0.48458215  0.69678379    -0.78400
O736        O  0.06454832  0.52998200  0.70178334    -0.88700
C737        C  0.01297908  0.42426087  0.71316479     0.85300
O738        O  0.06420128  0.52399748  0.78015288    -0.66900
O739        O  0.93983122  0.46406489  0.79080903    -0.86100
C740        C  0.06489767  0.49818257  0.79034556     0.86100
C741        C  0.06694819  0.50556817  0.68662834     1.07700
H742        H  0.00075997  0.46682767  0.79164161     0.39500
O743        O  0.99337108  0.47414162  0.76778573    -1.08800
O744        O  0.95615686  0.51659658  0.73552924    -0.65500
Ni745      Ni  0.98469793  0.51320051  0.77451709     1.26300
O746        O  0.04977537  0.47941024  0.77494822    -0.65700
O747        O  0.95580064  0.50592245  0.81142659    -0.78000
C748        C  0.99801403  0.56883297  0.79378724     0.85500
O749        O  0.97878892  0.55267127  0.78248136    -0.65100
Ni750      Ni  0.96454365  0.44921437  0.75204329     1.27400
Ni751      Ni  0.02328146  0.47929273  0.73291398     1.26100
H752        H  0.00447515  0.52372457  0.71278588     0.40000
C753        C  0.88382711  0.50752948  0.63922658     0.19600
C754        C  0.87776652  0.49594875  0.60340028    -0.18400
C755        C  0.85287411  0.50334870  0.58421478    -0.10700
C756        C  0.83323781  0.52221622  0.60084697     0.21900
C757        C  0.83934257  0.53386489  0.63662489    -0.20100
C758        C  0.86445416  0.52682725  0.65551381    -0.10900
C759        C  0.80531974  0.52822488  0.58314605    -0.15100
C760        C  0.80104883  0.52811820  0.54510446    -0.28900
C761        C  0.90877826  0.49676927  0.66077910    -0.03200
C762        C  0.92249504  0.51227945  0.68669328    -0.39700
H763        H  0.89210281  0.48068182  0.59056044     0.13000
H764        H  0.84853757  0.49330798  0.55719483     0.12700
H765        H  0.82439931  0.54811038  0.65029448     0.12100
H766        H  0.86800856  0.53551035  0.68360708     0.12400
H767        H  0.78795865  0.53304699  0.60227317     0.15100
H768        H  0.81912865  0.52547720  0.52661699     0.13900
H769        H  0.91554935  0.47503292  0.65580220     0.11500
H770        H  0.91689645  0.53447380  0.69024248     0.13600
C771        C  0.88005375  0.50952887  0.88178478     0.19600
C772        C  0.86245777  0.53357736  0.88298566    -0.18400
C773        C  0.83857628  0.53413207  0.90627455    -0.10700
C774        C  0.83186139  0.51053133  0.92905205     0.21900
C775        C  0.84964494  0.48656988  0.92800329    -0.20100
C776        C  0.87347760  0.48601988  0.90468761    -0.10900
C777        C  0.80812969  0.51091054  0.95669315    -0.15100
C778        C  0.78751099  0.53068343  0.95687880    -0.28900
C779        C  0.90525296  0.50964033  0.85677612    -0.03200
C780        C  0.91529360  0.48592506  0.84044820    -0.39700
H781        H  0.86722163  0.55201691  0.86584758     0.13000
H782        H  0.82606946  0.55341082  0.90699035     0.12700
H783        H  0.84532924  0.46833219  0.94576987     0.12100
H784        H  0.88703393  0.46740941  0.90538892     0.12400
H785        H  0.80803719  0.49469392  0.97880634     0.15100
H786        H  0.78511143  0.54538644  0.93320965     0.13900
H787        H  0.91443353  0.52982256  0.84941557     0.11500
H788        H  0.90458061  0.46612086  0.84501324     0.13600
C789        C  0.68023433  0.54035605  0.90709344     0.19600
C790        C  0.65544774  0.55653183  0.90185514    -0.18400
C791        C  0.63658156  0.55026915  0.87250747    -0.10700
C792        C  0.64205980  0.52745641  0.84777367     0.21900
C793        C  0.66722596  0.51183444  0.85231475    -0.20100
C794        C  0.68614023  0.51817915  0.88148884    -0.10900
C795        C  0.62090730  0.51722913  0.81994791    -0.15100
C796        C  0.59923680  0.53291920  0.80606196    -0.28900
C797        C  0.69763320  0.54527285  0.94177688    -0.03200
C798        C  0.72434817  0.53579923  0.94624205    -0.39700
H799        H  0.65019543  0.57354577  0.92135110     0.13000
H800        H  0.61717441  0.56244726  0.87062676     0.12700
H801        H  0.67185928  0.49398185  0.83394170     0.12100
H802        H  0.70456294  0.50470019  0.88489302     0.12400
H803        H  0.62300835  0.49528512  0.81116201     0.15100
H804        H  0.59735743  0.55525600  0.81267722     0.13900
H805        H  0.68763021  0.55680374  0.96499497     0.11500
H806        H  0.73537342  0.52599763  0.92250566     0.13600
C807        C  0.16593592  0.49123254  0.92289414     0.19600
C808        C  0.14760306  0.46957167  0.91243733    -0.18400
C809        C  0.12604409  0.47472064  0.88584993    -0.10700
C810        C  0.12240195  0.50168017  0.86907797     0.21900
C811        C  0.14021791  0.52341609  0.88062773    -0.20100
C812        C  0.16159485  0.51829891  0.90728676    -0.10900
C813        C  0.10069147  0.50845168  0.83946378    -0.15100
C814        C  0.08458548  0.48946369  0.82134757    -0.28900
C815        C  0.18997893  0.48634114  0.94946276    -0.03200
C816        C  0.20393217  0.46141910  0.95194373    -0.39700
H817        H  0.14976891  0.44866352  0.92489961     0.13000
H818        H  0.11243778  0.45750646  0.87874778     0.12700
H819        H  0.13786266  0.54445978  0.86855139     0.12100
H820        H  0.17524362  0.53541908  0.91503637     0.12400
H821        H  0.09856822  0.53056389  0.83118351     0.15100
H822        H  0.08617036  0.46715330  0.82831068     0.13900
H823        H  0.19819076  0.50444111  0.96451303     0.11500
H824        H  0.19786117  0.44409564  0.93368307     0.13600
C825        C  0.12978963  0.50877695  0.61704157     0.19600
C826        C  0.15793703  0.51645612  0.62155264    -0.18400
C827        C  0.17867101  0.50652530  0.59617888    -0.10700
C828        C  0.17146233  0.48894935  0.56546734     0.21900
C829        C  0.14313169  0.48228939  0.56019770    -0.20100
C830        C  0.12251324  0.49220808  0.58541928    -0.10900
C831        C  0.19251572  0.47594100  0.53913359    -0.15100
C832        C  0.21894171  0.48490133  0.53389326    -0.28900
C833        C  0.10858777  0.51718935  0.64638045    -0.03200
C834        C  0.08718899  0.50022472  0.65540756    -0.39700
H835        H  0.16405120  0.52929891  0.64557823     0.13000
H836        H  0.20026383  0.51192442  0.60157893     0.12700
H837        H  0.13691221  0.46909379  0.53656130     0.12100
H838        H  0.10089906  0.48667593  0.58019193     0.12400
H839        H  0.18568980  0.45792042  0.52270129     0.15100
H840        H  0.22686971  0.50225761  0.55054237     0.13900
H841        H  0.11193482  0.53619215  0.66294060     0.11500
H842        H  0.08537372  0.48007947  0.64095168     0.13600
C843        C  0.32488380  0.46635839  0.58934982     0.19600
C844        C  0.34234496  0.44582941  0.60680322    -0.18400
C845        C  0.36339782  0.45355813  0.63238790    -0.10700
C846        C  0.36785938  0.48223414  0.64060414     0.21900
C847        C  0.34990384  0.50271387  0.62380147    -0.20100
C848        C  0.32869762  0.49493895  0.59840214    -0.10900
C849        C  0.39102841  0.49189638  0.66585836    -0.15100
C850        C  0.41316071  0.47561079  0.67706019    -0.28900
C851        C  0.30498533  0.45730883  0.55922558    -0.03200
C852        C  0.28168349  0.47195282  0.54838462    -0.39700
H853        H  0.33987335  0.42365179  0.60028007     0.13000
H854        H  0.37605727  0.43691429  0.64529946     0.12700
H855        H  0.35275131  0.52495070  0.62958586     0.12100
H856        H  0.31610802  0.51141231  0.58485830     0.12400
H857        H  0.39038803  0.51397093  0.67432671     0.15100
H858        H  0.41491900  0.45366481  0.66855672     0.13900
H859        H  0.30998864  0.43740947  0.54522232     0.11500
H860        H  0.27505873  0.49065474  0.56400578     0.13600
C861        C  0.49211903  0.17417113  0.58087087     0.19600
C862        C  0.47527256  0.15017434  0.58312503    -0.18400
C863        C  0.48028043  0.12929153  0.61080784    -0.10700
C864        C  0.50248620  0.13178121  0.63702704     0.21900
C865        C  0.51925241  0.15590817  0.63503621    -0.20100
C866        C  0.51405636  0.17701397  0.60742875    -0.10900
C867        C  0.50997677  0.10849220  0.66434300    -0.15100
C868        C  0.49113927  0.08976127  0.67725397    -0.28900
C869        C  0.48817370  0.19358655  0.54760131    -0.03200
C870        C  0.49728435  0.22040390  0.54536585    -0.39700
H871        H  0.45857752  0.14715160  0.56260646     0.13000
H872        H  0.46745346  0.11066443  0.61035140     0.12700
H873        H  0.53675771  0.15817245  0.65446119     0.12100
H874        H  0.52798900  0.19479309  0.60592761     0.12400
H875        H  0.53173298  0.10644165  0.67348126     0.15100
H876        H  0.46911469  0.09254123  0.66987237     0.13900
H877        H  0.47438693  0.18542172  0.02631447     0.11500
H878        H  0.50609998  0.23053323  0.57024809     0.13600
C879        C  0.51361989  0.38207238  0.85428583     0.19600
C880        C  0.52516439  0.37665693  0.89052837    -0.18400
C881        C  0.51907620  0.35164507  0.91022719    -0.10700
C882        C  0.50170856  0.33133224  0.89359863     0.21900
C883        C  0.49033251  0.33670437  0.85729858    -0.20100
C884        C  0.49602659  0.36184836  0.83792834    -0.10900
C885        C  0.49733504  0.30326862  0.91158052    -0.15100
C886        C  0.49680467  0.29908659  0.94966238    -0.28900
C887        C  0.52198546  0.40764961  0.83255829    -0.03200
C888        C  0.50476469  0.42043179  0.80709353    -0.39700
H889        H  0.53917956  0.39166034  0.90340130     0.13000
H890        H  0.52889659  0.34775585  0.93768390     0.12700
H891        H  0.47733364  0.32116584  0.84361189     0.12100
H892        H  0.48754411  0.36484309  0.80948573     0.12400
H893        H  0.49462491  0.28562094  0.89239206     0.15100
H894        H  0.49748584  0.31740438  0.96797885     0.13900
H895        H  0.54300360  0.41560950  0.83692639     0.11500
H896        H  0.48326700  0.41340448  0.80435544     0.13600
C897        C  0.51023623  0.37966734  0.60925705     0.19600
C898        C  0.48656079  0.36286264  0.60387740    -0.18400
C899        C  0.48812927  0.33862572  0.58104766    -0.10700
C900        C  0.51350863  0.33078334  0.56289797     0.21900
C901        C  0.53694401  0.34797209  0.56761274    -0.20100
C902        C  0.53540657  0.37208312  0.59047633    -0.10900
C903        C  0.51593756  0.30640551  0.53631091    -0.15100
C904        C  0.49761182  0.28514646  0.53450364    -0.28900
C905        C  0.50792514  0.40507893  0.63413177    -0.03200
C906        C  0.53012365  0.41575794  0.65258754    -0.39700
H907        H  0.46679627  0.36845327  0.61751310     0.13000
H908        H  0.46928367  0.32657612  0.57706669     0.12700
H909        H  0.55654257  0.34285087  0.55323639     0.12100
H910        H  0.55385135  0.38498062  0.59265155     0.12400
H911        H  0.53352471  0.30614806  0.51647220     0.15100
H912        H  0.48147599  0.28290341  0.55615861     0.13900
H913        H  0.48711679  0.41410503  0.63936908     0.11500
H914        H  0.55063424  0.40555008  0.64996913     0.13600
C915        C  0.53046661  0.85730329  0.83984496     0.19600
C916        C  0.55162540  0.83615059  0.83973856    -0.18400
C917        C  0.55344773  0.81619128  0.86963441    -0.10700
C918        C  0.53447022  0.81761581  0.90047464     0.21900
C919        C  0.51354278  0.83883843  0.90049842    -0.20100
C920        C  0.51145647  0.85832674  0.87061116    -0.10900
C921        C  0.53746309  0.79982711  0.93531966    -0.15100
C922        C  0.54763074  0.77306783  0.93651273    -0.28900
C923        C  0.52899050  0.87926771  0.80918644    -0.03200
C924        C  0.50404001  0.88991661  0.79737621    -0.39700
H925        H  0.56677610  0.83517659  0.81665106     0.13000
H926        H  0.57026970  0.80047659  0.86936161     0.12700
H927        H  0.49898960  0.84069787  0.92422604     0.12100
H928        H  0.49547634  0.87485464  0.87237011     0.12400
H929        H  0.52976920  0.80925874  0.96167409     0.15100
H930        H  0.55308006  0.76206009  0.91032910     0.13900
H931        H  0.54838769  0.88723854  0.79723621     0.11500
H932        H  0.48491972  0.88042464  0.80801589     0.13600
C933        C  0.52562822  0.62030907  0.63970471     0.19600
C934        C  0.54708518  0.62182994  0.61219059    -0.18400
C935        C  0.54999316  0.64616806  0.58946699    -0.10700
C936        C  0.53172188  0.66959999  0.59446970     0.21900
C937        C  0.51054688  0.66811710  0.62222486    -0.20100
C938        C  0.50742726  0.64381809  0.64445657    -0.10900
C939        C  0.53503660  0.69671151  0.57352995    -0.15100
C940        C  0.54574416  0.69908562  0.53806681    -0.28900
C941        C  0.52330001  0.59483999  0.66468828    -0.03200
C942        C  0.49836835  0.58664881  0.67864117    -0.39700
H943        H  0.56163754  0.60419592  0.60836838     0.13000
H944        H  0.56699667  0.64691585  0.56895494     0.12700
H945        H  0.49646030  0.68600983  0.62701403     0.12100
H946        H  0.49126007  0.64391753  0.66621869     0.12400
H947        H  0.52674861  0.71560563  0.58740196     0.15100
H948        H  0.55213108  0.68032058  0.52237416     0.13900
H949        H  0.54228108  0.58284371  0.67180251     0.11500
H950        H  0.47933793  0.59768536  0.66935120     0.13600
C951        C  0.51182452  0.61860018  0.87988001     0.19600
C952        C  0.53802931  0.63146635  0.88336180    -0.18400
C953        C  0.54144958  0.65470048  0.90717885    -0.10700
C954        C  0.51866743  0.66563325  0.92834251     0.21900
C955        C  0.49253769  0.65247722  0.92560706    -0.20100
C956        C  0.48902763  0.62926596  0.90144768    -0.10900
C957        C  0.52221573  0.68934230  0.95544151    -0.15100
C958        C  0.54193753  0.70914753  0.95110364    -0.28900
C959        C  0.50976596  0.59410045  0.85364431    -0.03200
C960        C  0.48561351  0.58392409  0.83962078    -0.39700
H961        H  0.55604188  0.62350427  0.86750148     0.13000
H962        H  0.56215484  0.66356832  0.90963444     0.12700
H963        H  0.47480472  0.66018347  0.94223572     0.12100
H964        H  0.46865121  0.61959349  0.90036081     0.12400
H965        H  0.50816663  0.69059700  0.97988603     0.15100
H966        H  0.55417929  0.71008045  0.92496549     0.13900
H967        H  0.52954436  0.58508776  0.84341663     0.11500
H968        H  0.46548157  0.59304620  0.84798487     0.13600
C969        C  0.13976094  0.01050715  0.64238534     0.19600
C970        C  0.16445172  0.99439940  0.63641146    -0.18400
C971        C  0.18258887  0.00064453  0.60608969    -0.10700
C972        C  0.17631703  0.02324177  0.58096115     0.21900
C973        C  0.15184837  0.03951943  0.58726297    -0.20100
C974        C  0.13375955  0.03328407  0.61744148    -0.10900
C975        C  0.19312654  0.02922624  0.54607412    -0.15100
C976        C  0.21956312  0.01966143  0.54003302    -0.28900
C977        C  0.11964182  0.00142870  0.67252590    -0.03200
C978        C  0.09842892  0.01798365  0.68556033    -0.39700
H979        H  0.16940664  0.97648498  0.65476540     0.13000
H980        H  0.20079520  0.98703745  0.60176540     0.12700
H981        H  0.14628297  0.05678946  0.56809927     0.12100
H982        H  0.11461172  0.04575936  0.61986110     0.12400
H983        H  0.18739629  0.04606921  0.02662259     0.15100
H984        H  0.23058837  0.00819255  0.56245675     0.13900
H985        H  0.12172082  0.97987622  0.68320211     0.11500
H986        H  0.09639933  0.03981252  0.67626377     0.13600
C987        C  0.37523591  0.99856540  0.83849681     0.19600
C988        C  0.36222644  0.97929750  0.86317216    -0.18400
C989        C  0.33894293  0.98747923  0.88516200    -0.10700
C990        C  0.32798146  0.01526933  0.88292295     0.21900
C991        C  0.34091390  0.03456695  0.85820962    -0.22900
C992        C  0.36433131  0.02641055  0.83630765    -0.10900
C993        C  0.30219455  0.02426505  0.90411768    -0.15100
C994        C  0.29374678  0.01182732  0.93674576    -0.28900
C995        C  0.39855918  0.98803347  0.81358591    -0.03200
C996        C  0.41684264  0.00470313  0.79502374    -0.39700
H997        H  0.36984786  0.95761072  0.86500735     0.13000
H998        H  0.32909635  0.97166810  0.90284021     0.12700
H999        H  0.33267200  0.05598495  0.85553203     0.12100
H1000       H  0.37312044  0.04174712  0.81690220     0.12400
H1001       H  0.29017761  0.04221765  0.89295454     0.15100
H1002       H  0.30668172  0.99528267  0.94966144     0.13900
H1003       H  0.40052425  0.96526281  0.81011938     0.11500
H1004       H  0.41613136  0.02741688  0.79905387     0.13600
C1005       C  0.37257089  0.98808903  0.60373758     0.19600
C1006       C  0.34430032  0.98418439  0.61343653    -0.18400
C1007       C  0.32284400  0.99383091  0.58916107    -0.10700
C1008       C  0.32938360  0.00721034  0.55437360     0.21900
C1009       C  0.35766161  0.01082579  0.54451850    -0.20100
C1010       C  0.37908352  0.00118603  0.56876081    -0.10900
C1011       C  0.30748344  0.01805627  0.52780774    -0.15100
C1012       C  0.28161427  0.00730801  0.52527086    -0.28900
C1013       C  0.39470169  0.97885535  0.63105551    -0.03200
C1014       C  0.41908443  0.99250434  0.63446889    -0.39700
H1015       H  0.33880052  0.97425972  0.64032176     0.13000
H1016       H  0.30128614  0.99131064  0.59815855     0.12700
H1017       H  0.36319872  0.02093529  0.51776674     0.12100
H1018       H  0.40066683  0.00385926  0.55991519     0.12400
H1019       H  0.31291819  0.03048046  0.00555426     0.15100
H1020       H  0.27508727  0.99068665  0.54458449     0.13900
H1021       H  0.38972417  0.96216201  0.65128336     0.11500
H1022       H  0.42324734  0.01074573  0.61652553     0.13600
C1023       C  0.86719910  0.97984484  0.86722236     0.19600
C1024       C  0.84070237  0.99353648  0.86795591    -0.18400
C1025       C  0.82006113  0.98553913  0.89440113    -0.10700
C1026       C  0.82561822  0.96365477  0.92088603     0.21900
C1027       C  0.85202528  0.94993974  0.91994394    -0.20100
C1028       C  0.87253548  0.95786765  0.89363998    -0.10900
C1029       C  0.80570382  0.95539116  0.95170352    -0.15100
C1030       C  0.77803922  0.96225263  0.95328581    -0.28900
C1031       C  0.88935618  0.99024016  0.84057956    -0.03200
C1032       C  0.91253536  0.97495024  0.83111524    -0.39700
H1033       H  0.83608990  0.01077764  0.84832737     0.13000
H1034       H  0.80025307  0.99709307  0.89461914     0.12700
H1035       H  0.85708300  0.93324594  0.94025332     0.12100
H1036       H  0.89280909  0.94727598  0.89525696     0.12400
H1037       H  0.81476500  0.94244682  0.97430662     0.15100
H1038       H  0.76834769  0.97413057  0.93012659     0.13900
H1039       H  0.88661984  0.01139492  0.82875679     0.11500
H1040       H  0.91502484  0.95332750  0.84113276     0.13600
C1041       C  0.65921826  0.97812488  0.56466570     0.19600
C1042       C  0.64411541  0.95539932  0.58008818    -0.18400
C1043       C  0.62189546  0.96033144  0.60569100    -0.10700
C1044       C  0.61429241  0.98812117  0.61624861     0.21900
C1045       C  0.62868078  0.01069229  0.59945510    -0.20100
C1046       C  0.65078154  0.00576871  0.57397274    -0.10900
C1047       C  0.59231697  0.99506526  0.64523867    -0.15100
C1048       C  0.57910546  0.97635031  0.66801416    -0.28900
C1049       C  0.68408178  0.97409922  0.53936591    -0.03200
C1050       C  0.70029643  0.95052943  0.53948084    -0.39700
H1051       H  0.64932240  0.93380006  0.57248370     0.13000
H1052       H  0.61100947  0.94231563  0.61709989     0.12700
H1053       H  0.62320975  0.03234313  0.60670800     0.12100
H1054       H  0.66181438  0.02367431  0.56225060     0.12400
H1055       H  0.58776241  0.01744799  0.64932007     0.15100
H1056       H  0.58279208  0.95380057  0.66505143     0.13900
H1057       H  0.69081988  0.99222549  0.52277701     0.11500
H1058       H  0.69563284  0.93334839  0.55898211     0.13600
C1059       C  0.62693031  0.99041765  0.87087784     0.19600
C1060       C  0.65518258  0.99800814  0.86684093    -0.18400
C1061       C  0.67545966  0.98862167  0.89330732    -0.10700
C1062       C  0.66771075  0.97164159  0.92461257     0.21900
C1063       C  0.63932952  0.96489908  0.92924611    -0.20100
C1064       C  0.61913875  0.97433921  0.90299393    -0.10900
C1065       C  0.68829098  0.95960288  0.95249317    -0.15100
C1066       C  0.71382880  0.97016596  0.95963838    -0.28900
C1067       C  0.60613715  0.99910635  0.84103198    -0.03200
C1068       C  0.58315439  0.98387741  0.83360189    -0.39700
H1069       H  0.66171827  0.01055097  0.84253719     0.13000
H1070       H  0.69714926  0.99401621  0.88843910     0.12700
H1071       H  0.63271137  0.95219074  0.95336519     0.12100
H1072       H  0.59745388  0.96899182  0.90808392     0.12400
H1073       H  0.68163475  0.94141653  0.96900105     0.15100
H1074       H  0.72139944  0.98796134  0.94323594     0.13900
H1075       H  0.61070485  0.01738317  0.82330681     0.11500
H1076       H  0.57953323  0.96451569  0.84947590     0.13600
C1077       C  0.02990916  0.15714220  0.91432046     0.19600
C1078       C  0.03871115  0.15421617  0.87625351    -0.18400
C1079       C  0.03143498  0.13061015  0.85492651    -0.10700
C1080       C  0.01505667  0.10922602  0.87123083     0.21900
C1081       C  0.00667147  0.11182495  0.90956812    -0.20100
C1082       C  0.01407690  0.13547023  0.93103673    -0.10900
C1083       C  0.00425780  0.08552368  0.84800101    -0.15100
C1084       C  0.01690529  0.07631245  0.81584244    -0.28900
C1085       C  0.03531033  0.18435940  0.93377407    -0.03200
C1086       C  0.03380469  0.18846689  0.97178249    -0.39700
H1087       H  0.05061453  0.17072932  0.86252266     0.13000
H1088       H  0.03760768  0.12996446  0.82519644     0.12700
H1089       H  0.99376199  0.09582765  0.92266759     0.12100
H1090       H  0.00627280  0.13718123  0.95997300     0.12400
H1091       H  0.98496326  0.07568964  0.85738037     0.15100
H1092       H  0.03708509  0.08464511  0.80740315     0.13900
H1093       H  0.03996517  0.20214479  0.91528066     0.11500
H1094       H  0.02997149  0.17075468  0.99065461     0.13600
C1095       C  0.99002602  0.16576056  0.57620324     0.19600
C1096       C  0.98748922  0.13746532  0.56531024    -0.18400
C1097       C  0.98204532  0.11661531  0.59260953    -0.10700
C1098       C  0.97866434  0.12380605  0.63134576     0.21900
C1099       C  0.97953320  0.15237841  0.64181750    -0.20100
C1100       C  0.98544174  0.17319511  0.61456353    -0.10900
C1101       C  0.97496805  0.10194277  0.66146196    -0.15100
C1102       C  0.98708416  0.07611119  0.65890653    -0.28900
C1103       C  0.99856437  0.18676570  0.54717418    -0.03200
C1104       C  0.01791756  0.20629617  0.55465987    -0.39700
H1105       H  0.99068188  0.13135929  0.53580203     0.13000
H1106       H  0.98060236  0.09490973  0.58332073     0.12700
H1107       H  0.97657144  0.15848309  0.67135892     0.12100
H1108       H  0.98663003  0.19501850  0.62349822     0.12400
H1109       H  0.96420513  0.10800287  0.68765442     0.15100
H1110       H  0.99975554  0.07074649  0.63406892     0.13900
H1111       H  0.98761504  0.18702564  0.01735797     0.11500
H1112       H  0.02533195  0.20886804  0.58375586     0.13600
C1113       C  0.03359611  0.31418554  0.59935635     0.19600
C1114       C  0.05191017  0.33609822  0.60819208    -0.18400
C1115       C  0.04362751  0.35776301  0.63289922    -0.10700
C1116       C  0.01669644  0.35797704  0.64951354     0.21900
C1117       C  0.99839338  0.33597932  0.64090600    -0.20100
C1118       C  0.00671121  0.31423042  0.61616927    -0.10900
C1119       C  0.00635858  0.38178152  0.67356233    -0.15100
C1120       C  0.02351834  0.39920150  0.69235824    -0.28900
C1121       C  0.04249976  0.29351421  0.56974017    -0.03200
C1122       C  0.02997594  0.26871564  0.56329056    -0.39700
H1123       H  0.07254272  0.33685395  0.59515151     0.13000
H1124       H  0.05805422  0.37477639  0.63760582     0.12700
H1125       H  0.97739232  0.33588109  0.65287089     0.12100
H1126       H  0.99162445  0.29823554  0.60931461     0.12400
H1127       H  0.98375572  0.38512692  0.67568978     0.15100
H1128       H  0.04606305  0.39540777  0.69223784     0.13900
H1129       H  0.06021205  0.29935753  0.55199587     0.11500
H1130       H  0.01358064  0.26138980  0.58221796     0.13600
C1131       C  0.00898284  0.87869823  0.65194650     0.19600
C1132       C  0.02751282  0.87098142  0.62237496    -0.18400
C1133       C  0.02338153  0.84651149  0.60109888    -0.10700
C1134       C  0.00038439  0.82910622  0.60884445     0.21900
C1135       C  0.98177154  0.83688069  0.63831858    -0.20100
C1136       C  0.98595202  0.86134236  0.65968233    -0.10900
C1137       C  0.99540501  0.80227083  0.58810152    -0.15100
C1138       C  0.00879136  0.79429450  0.55584628    -0.28900
C1139       C  0.01588265  0.90376609  0.67539228    -0.03200
C1140       C  0.99908175  0.91545307  0.70232374    -0.39700
H1141       H  0.04563774  0.88372713  0.61606831     0.13000
H1142       H  0.03869501  0.84122868  0.57937392     0.12700
H1143       H  0.96401934  0.82376936  0.64518266     0.12100
H1144       H  0.97144229  0.86597884  0.68265351     0.12400
H1145       H  0.97925802  0.78869786  0.59959356     0.15100
H1146       H  0.02401680  0.80789087  0.54253290     0.13900
H1147       H  0.03658098  0.91254212  0.67091250     0.11500
H1148       H  0.97802461  0.90789118  0.70716557     0.13600
C1149       C  0.02280128  0.86695791  0.88059668     0.19600
C1150       C  0.03884352  0.84178945  0.88253831    -0.18400
C1151       C  0.03235420  0.82075561  0.90936696    -0.10700
C1152       C  0.00935610  0.82450275  0.93439120     0.21900
C1153       C  0.99295557  0.84932196  0.93147235    -0.20100
C1154       C  0.99937350  0.87014398  0.90481849    -0.10900
C1155       C  0.00128531  0.80369720  0.96420458    -0.15100
C1156       C  0.01384582  0.77845759  0.97062797    -0.28900
C1157       C  0.03001530  0.88921307  0.85230813    -0.03200
C1158       C  0.02281293  0.91652897  0.85775347    -0.39700
H1159       H  0.05665257  0.83858792  0.86364682     0.13000
H1160       H  0.04551254  0.80191991  0.91036138     0.12700
H1161       H  0.97490709  0.85266108  0.94991449     0.12100
H1162       H  0.98554059  0.88849236  0.90300003     0.12400
H1163       H  0.98334950  0.80934637  0.98203077     0.15100
H1164       H  0.03067878  0.77077420  0.95238712     0.13900
H1165       H  0.04063536  0.88290239  0.82611089     0.11500
H1166       H  0.01281396  0.92309397  0.88421119     0.13600
C1167       C  0.99400603  0.67188340  0.92190072     0.19600
C1168       C  0.97559733  0.64939105  0.91681486    -0.18400
C1169       C  0.97975903  0.62995715  0.88739154    -0.10700
C1170       C  0.00257484  0.63254121  0.86212561     0.21900
C1171       C  0.02099435  0.65511398  0.86704474    -0.20100
C1172       C  0.01677685  0.67467052  0.89653798    -0.10900
C1173       C  0.00910469  0.61080411  0.83265793    -0.15100
C1174       C  0.99007163  0.59268920  0.81894888    -0.28900
C1175       C  0.98956983  0.69040471  0.95564724    -0.03200
C1176       C  0.00113643  0.71592140  0.96041610    -0.39700
H1177       H  0.95812898  0.64648257  0.93623222     0.13000
H1178       H  0.96560941  0.61240695  0.88562963     0.12700
H1179       H  0.03900383  0.65734204  0.84838628     0.12100
H1180       H  0.03190230  0.69122811  0.89999737     0.12400
H1181       H  0.03065984  0.60931543  0.82247140     0.15100
H1182       H  0.96814944  0.59466974  0.82716789     0.13900
H1183       H  0.97552971  0.68250436  0.97749204     0.11500
H1184       H  0.01378959  0.72496680  0.93788537     0.13600
loop_ 
_geom_bond_atom_site_label_1 
_geom_bond_atom_site_label_2 
_geom_bond_distance 
_geom_bond_site_symmetry_2 
_ccdc_geom_bond_type 
N1            C2   1.356       .  A
N1          C597   1.361       .  A
N1          C564   1.446       .  S
C2          C584   1.487       .  S
C2          C595   1.387   1_455  A
C3            C4   1.376       .  A
C3          C594   1.388   1_554  A
C3            H6   1.081       .  S
C4            C5   1.384       .  A
C4            H7   1.082       .  S
C5          N593   1.358   1_655  A
C5          C546   1.486   1_655  S
N8            C9   1.354       .  A
N8          C604   1.360   1_554  A
N8          C512   1.441       .  S
C9          C530   1.486       .  S
C9          C602   1.385   1_554  A
C10          C11   1.373       .  A
C10         C601   1.385       .  A
C10          H13   1.081       .  S
C11          C12   1.386       .  A
C11          H14   1.081       .  S
C12         N600   1.360       .  A
C12         C494   1.487       .  S
N15          C16   1.354       .  A
N15         C611   1.360       .  A
N15         C474   1.443       .  S
C16         C438   1.484       .  S
C16         C609   1.386       .  A
C17          C18   1.373       .  A
C17         C608   1.391   1_554  A
C17          H20   1.080       .  S
C18          C19   1.376       .  A
C18          H21   1.082       .  S
C19         N607   1.362   1_554  A
C19         C458   1.481       .  S
N22          C23   1.353   1_556  A
N22         C618   1.356       .  A
N22         C420   1.441   1_556  S
C23         C384   1.488       .  S
C23         C616   1.387   1_554  A
C24          C25   1.379       .  A
C24         C615   1.388       .  A
C24          H27   1.081       .  S
C25          C26   1.384       .  A
C25          H28   1.082       .  S
C26         N614   1.356       .  A
C26         C402   1.485       .  S
N29          C30   1.358       .  A
N29         C625   1.361       .  A
N29         C366   1.443       .  S
C30         C330   1.490       .  S
C30         C623   1.386       .  A
C31          C32   1.374       .  A
C31         C622   1.385   1_554  A
C31          H34   1.082       .  S
C32          C33   1.385       .  A
C32          H35   1.082       .  S
C33         N621   1.360   1_554  A
C33         C348   1.489       .  S
N36          C37   1.357       .  A
N36         C632   1.362   1_554  A
N36         C312   1.443       .  S
C37         C278   1.491       .  S
C37         C630   1.385   1_554  A
C38          C39   1.374       .  A
C38         C629   1.385       .  A
C38          H41   1.082       .  S
C39          C40   1.387       .  A
C39          H42   1.081       .  S
C40         N628   1.363       .  A
C40         C294   1.494       .  S
N43          C44   1.361       .  A
N43         C639   1.363   1_554  A
N43         C240   1.445       .  S
C44         C260   1.496       .  S
C44         C637   1.389   1_554  A
C45          C46   1.374       .  A
C45         C636   1.387       .  A
C45          H48   1.082       .  S
C46          C47   1.379       .  A
C46          H49   1.082       .  S
C47         N635   1.363       .  A
C47         C224   1.485       .  S
N50          C51   1.354       .  A
N50         C646   1.359       .  A
N50         C186   1.439       .  S
C51         C206   1.490       .  S
C51         C644   1.386       .  A
C52          C53   1.379       .  A
C52         C643   1.385   1_554  A
C52          H55   1.081       .  S
C53          C54   1.388       .  A
C53          H56   1.081       .  S
C54         N642   1.361   1_554  A
C54         C168   1.495       .  S
O57         Ni63   1.942       .  S
O57          C78   1.275       .  A
O58         Ni81   1.910       .  S
O58          C67   1.269       .  A
O59         Ni63   1.914       .  S
O59         Ni81   1.911       .  S
O59         Ni75   1.905       .  S
O59          H82   0.966       .  S
C60         C368   1.482       .  S
C60          O77   1.272       .  A
C60          O69   1.276       .  A
O61         Ni80   1.942       .  S
O61          C67   1.275       .  A
O62         Ni80   1.908       .  S
O62          C64   1.270       .  A
Ni63         O66   1.930       .  S
Ni63         O68   1.912       .  S
C64         C350   1.476       .  S
C64          O74   1.275       .  A
O65         Ni81   1.918       .  S
O65          C71   1.276       .  A
O66          C71   1.276       .  A
C67         C258   1.485       .  S
O68          C70   1.271       .  A
O69         Ni80   1.935       .  S
C70         C296   1.477       .  S
C70          O76   1.272       .  A
C71         C314   1.478       .  S
H72          O73   0.966       .  S
O73         Ni81   1.915       .  S
O73         Ni75   1.907       .  S
O73         Ni80   1.916       .  S
O74         Ni75   1.932       .  S
Ni75         O79   1.903       .  S
Ni75         O77   1.906       .  S
O76         Ni81   1.929       .  S
C78         C204   1.483       .  S
C78          O79   1.266       .  A
O83         Ni89   1.928       .  S
O83         C104   1.271       .  A
O84        Ni107   1.897       .  S
O84          C93   1.263       .  A
O85         Ni89   1.921       .  S
O85        Ni107   1.907   1_565  S
O85        Ni101   1.906       .  S
O85         H108   0.966       .  S
C86         C476   1.475       .  S
C86         O103   1.267       .  A
C86          O95   1.276   1_565  A
O87        Ni106   1.946       .  S
O87          C93   1.274       .  A
O88        Ni106   1.898       .  S
O88          C90   1.270   1_545  A
Ni89         O92   1.928       .  S
Ni89         O94   1.905       .  S
C90         C456   1.482       .  S
C90         O100   1.277       .  A
O91        Ni107   1.903       .  S
O91          C97   1.269   1_545  A
O92          C97   1.275       .  A
C93         C276   1.481       .  S
O94          C96   1.269       .  A
O95        Ni106   1.940       .  S
C96         C404   1.478   1_565  S
C96         O102   1.271   1_565  A
C97         C422   1.472       .  S
H98          O99   0.966       .  S
O99        Ni107   1.913       .  S
O99        Ni101   1.917   1_545  S
O99        Ni106   1.927       .  S
O100       Ni101   1.944       .  S
Ni101       O105   1.913       .  S
Ni101       O103   1.896       .  S
O102       Ni107   1.930       .  S
C104        C332   1.476       .  S
C104        O105   1.268       .  A
O109       Ni115   1.932       .  S
O109        C130   1.273   1_545  A
O110       Ni133   1.895       .  S
O110        C119   1.263       .  A
O111       Ni115   1.927       .  S
O111       Ni133   1.903   1_655  S
O111       Ni127   1.910   1_545  S
O111        H134   0.968   1_545  S
C112        C566   1.476       .  S
C112        O129   1.265       .  A
C112        O121   1.275       .  A
O113       Ni132   1.940       .  S
O113        C119   1.274   1_565  A
O114       Ni132   1.897       .  S
O114        C116   1.269       .  A
Ni115       O118   1.942       .  S
Ni115       O120   1.907       .  S
C116        C548   1.477   1_455  S
C116        O126   1.277   1_455  A
O117       Ni133   1.896       .  S
O117        C123   1.265   1_455  A
O118        C123   1.274       .  A
C119        C386   1.479       .  S
O120        C122   1.271   1_655  A
O121       Ni132   1.947       .  S
C122        C492   1.474       .  S
C122        O128   1.275       .  A
C123        C510   1.473       .  S
H124        O125   0.966   1_545  S
O125       Ni133   1.913   1_565  S
O125       Ni127   1.909   1_455  S
O125       Ni132   1.928       .  S
O126       Ni127   1.944       .  S
Ni127       O131   1.899       .  S
Ni127       O129   1.896   1_655  S
O128       Ni133   1.940       .  S
C130        C440   1.476       .  S
C130        O131   1.266       .  A
O135       Ni141   1.936       .  S
O135        C156   1.275   1_455  A
O136       Ni159   1.896       .  S
O136        C145   1.264       .  A
O137       Ni141   1.922       .  S
O137       Ni159   1.908       .  S
O137       Ni153   1.925   1_455  S
O137        H160   0.966       .  S
C138        C188   1.472       .  S
C138        O155   1.280       .  A
C138        O147   1.276       .  A
O139       Ni158   1.937       .  S
O139        C145   1.274   1_655  A
O140       Ni158   1.914       .  S
O140        C142   1.270       .  A
Ni141       O144   1.942       .  S
Ni141       O146   1.907       .  S
C142        C170   1.482       .  S
C142        O152   1.271       .  A
O143       Ni159   1.894       .  S
O143        C149   1.265       .  A
O144        C149   1.277       .  A
C145        C528   1.474       .  S
O146        C148   1.270       .  A
O147       Ni158   1.921       .  S
C148        C222   1.486       .  S
C148        O154   1.276       .  A
C149        C242   1.475       .  S
H150        O151   0.966   1_455  S
O151       Ni159   1.890   1_655  S
O151       Ni153   1.901       .  S
O151       Ni158   1.910       .  S
O152       Ni153   1.931       .  S
Ni153       O157   1.905       .  S
Ni153       O155   1.921       .  S
O154       Ni159   1.940       .  S
C156        C582   1.479       .  S
C156        O157   1.268       .  A
C161        C169   1.489       .  S
C161        C162   1.404       .  A
C161        C166   1.408       .  A
C162        C163   1.401       .  A
C162        H171   1.083       .  S
C163        C164   1.408       .  A
C163        H172   1.082       .  S
C164        C167   1.488       .  S
C164        C165   1.403       .  A
C165        C166   1.400       .  A
C165        H173   1.083       .  S
C166        H174   1.082       .  S
C167        H175   1.084       .  S
C167        C168   1.348       .  D
C168        H176   1.082       .  S
C169        H177   1.087       .  S
C169        C170   1.347       .  D
C170        H178   1.086       .  S
C179        C187   1.486       .  S
C179        C180   1.402       .  A
C179        C184   1.409       .  A
C180        C181   1.398       .  A
C180        H189   1.083       .  S
C181        C182   1.408       .  A
C181        H190   1.081       .  S
C182        C185   1.482       .  S
C182        C183   1.401       .  A
C183        C184   1.396       .  A
C183        H191   1.084       .  S
C184        H192   1.081       .  S
C185        H193   1.087       .  S
C185        C186   1.342       .  D
C186        H194   1.085       .  S
C187        H195   1.087       .  S
C187        C188   1.342       .  D
C188        H196   1.085       .  S
C197        C205   1.491       .  S
C197        C198   1.405       .  A
C197        C202   1.408       .  A
C198        C199   1.401       .  A
C198        H207   1.083       .  S
C199        C200   1.408       .  A
C199        H208   1.081       .  S
C200        C203   1.491       .  S
C200        C201   1.405       .  A
C201        C202   1.400       .  A
C201        H209   1.083       .  S
C202        H210   1.081       .  S
C203        H211   1.087       .  S
C203        C204   1.348       .  D
C204        H212   1.085       .  S
C205        H213   1.086       .  S
C205        C206   1.349       .  D
C206        H214   1.084       .  S
C215        C223   1.494       .  S
C215        C216   1.410       .  A
C215        C220   1.403       .  A
C216        C217   1.402       .  A
C216        H225   1.081       .  S
C217        C218   1.408       .  A
C217        H226   1.080       .  S
C218        C221   1.495       .  S
C218        C219   1.406       .  A
C219        C220   1.400       .  A
C219        H227   1.083       .  S
C220        H228   1.083       .  S
C221        H229   1.087       .  S
C221        C222   1.353       .  D
C222        H230   1.083       .  S
C223        H231   1.086       .  S
C223        C224   1.346       .  D
C224        H232   1.084       .  S
C233        C241   1.490       .  S
C233        C234   1.404       .  A
C233        C238   1.408       .  A
C234        C235   1.402       .  A
C234        H243   1.083       .  S
C235        C236   1.408       .  A
C235        H244   1.081       .  S
C236        C239   1.486       .  S
C236        C237   1.403       .  A
C237        C238   1.397       .  A
C237        H245   1.084       .  S
C238        H246   1.082       .  S
C239        H247   1.086       .  S
C239        C240   1.347       .  D
C240        H248   1.083       .  S
C241        H249   1.087       .  S
C241        C242   1.344       .  D
C242        H250   1.086       .  S
C251        C259   1.493       .  S
C251        C252   1.405       .  A
C251        C256   1.407       .  A
C252        C253   1.398       .  A
C252        H261   1.084       .  S
C253        C254   1.409       .  A
C253        H262   1.079       .  S
C254        C257   1.500       .  S
C254        C255   1.409       .  A
C255        C256   1.405       .  A
C255        H263   1.083       .  S
C256        H264   1.081       .  S
C257        H265   1.087       .  S
C257        C258   1.353       .  D
C258        H266   1.082       .  S
C259        H267   1.085       .  S
C259        C260   1.352       .  D
C260        H268   1.083       .  S
C269        C277   1.489       .  S
C269        C270   1.403       .  A
C269        C274   1.408       .  A
C270        C271   1.397       .  A
C270        H279   1.084       .  S
C271        C272   1.408       .  A
C271        H280   1.081       .  S
C272        C275   1.493       .  S
C272        C273   1.406       .  A
C273        C274   1.404       .  A
C273        H281   1.083       .  S
C274        H282   1.082       .  S
C275        H283   1.087       .  S
C275        C276   1.348       .  D
C276        H284   1.085       .  S
C277        H877   1.086       .  S
C277        C278   1.349       .  D
C278        H286   1.085       .  S
H285        C869   1.086       .  S
C287        C295   1.486       .  S
C287        C288   1.404       .  A
C287        C292   1.407       .  A
C288        C289   1.401       .  A
C288        H297   1.083       .  S
C289        C290   1.407       .  A
C289        H298   1.083       .  S
C290        C293   1.483       .  S
C290        C291   1.402       .  A
C291        C292   1.397       .  A
C291        H299   1.083       .  S
C292        H300   1.082       .  S
C293        H301   1.084       .  S
C293        C294   1.347       .  D
C294        H302   1.082       .  S
C295        H303   1.087       .  S
C295        C296   1.346       .  D
C296        H304   1.086       .  S
C305        C313   1.491       .  S
C305        C306   1.404       .  A
C305        C310   1.408       .  A
C306        C307   1.400       .  A
C306        H315   1.083       .  S
C307        C308   1.409       .  A
C307        H316   1.081       .  S
C308        C311   1.489       .  S
C308        C309   1.403       .  A
C309        C310   1.399       .  A
C309        H317   1.083       .  S
C310        H318   1.081       .  S
C311        H319   1.087       .  S
C311        C312   1.346       .  D
C312        H320   1.084       .  S
C313        H321   1.087       .  S
C313        C314   1.346       .  D
C314        H322   1.085       .  S
C323        C331   1.489       .  S
C323        C324   1.406       .  A
C323        C328   1.406       .  A
C324        C325   1.407       .  A
C324        H333   1.083       .  S
C325        C326   1.407       .  A
C325        H334   1.083       .  S
C326        C329   1.482       .  S
C326        C327   1.400       .  A
C327        C328   1.393       .  A
C327        H335   1.084       .  S
C328        H336   1.083       .  S
C329        H337   1.087       .  S
C329        C330   1.347       .  D
C330        H338   1.085       .  S
C331        H339   1.086       .  S
C331        C332   1.346       .  D
C332        H340   1.087       .  S
C341        C349   1.485       .  S
C341        C342   1.404       .  A
C341        C346   1.405       .  A
C342        C343   1.404       .  A
C342        H351   1.083       .  S
C343        C344   1.408       .  A
C343        H352   1.082       .  S
C344        C347   1.485       .  S
C344        C345   1.403       .  A
C345        C346   1.394       .  A
C345        H353   1.084       .  S
C346        H354   1.083       .  S
C347        H355   1.086       .  S
C347        C348   1.347       .  D
C348        H356   1.084       .  S
C349        H357   1.086       .  S
C349        C350   1.345       .  D
C350        H358   1.087       .  S
C359        C367   1.486       .  S
C359        C360   1.404       .  A
C359        C364   1.406       .  A
C360        C361   1.397       .  A
C360        H369   1.084       .  S
C361        C362   1.407       .  A
C361        H370   1.081       .  S
C362        C365   1.488       .  S
C362        C363   1.406       .  A
C363        C364   1.401       .  A
C363        H371   1.083       .  S
C364        H372   1.082       .  S
C365        H373   1.086       .  S
C365        C366   1.348       .  D
C366        H374   1.084       .  S
C367        H375   1.087       .  S
C367        C368   1.349       .  D
C368        H376   1.085       .  S
C377        C385   1.492       .  S
C377        C378   1.404   1_545  A
C377        C382   1.409       .  A
C378        C379   1.400       .  A
C378        H387   1.083       .  S
C379        C380   1.409   1_565  A
C379        H388   1.080       .  S
C380        C383   1.492       .  S
C380        C381   1.404       .  A
C381        C382   1.398       .  A
C381        H389   1.084       .  S
C382        H390   1.080       .  S
C383        H983   1.086       .  S
C383        C384   1.348       .  D
C384        H392   1.081       .  S
C385        H393   1.087   1_545  S
C385        C386   1.347       .  D
C386        H394   1.084       .  S
H391        C975   1.085       .  S
C395        C403   1.486       .  S
C395        C396   1.403       .  A
C395        C400   1.408   1_565  A
C396        C397   1.398       .  A
C396        H405   1.083       .  S
C397        C398   1.408   1_565  A
C397        H406   1.081       .  S
C398        C401   1.487       .  S
C398        C399   1.403       .  A
C399        C400   1.398       .  A
C399        H407   1.083       .  S
C400        H408   1.081       .  S
C401        H409   1.086       .  S
C401        C402   1.345       .  D
C402        H410   1.083   1_545  S
C403        H411   1.087       .  S
C403        C404   1.347   1_565  D
C404        H412   1.085       .  S
C413        C421   1.483       .  S
C413        C414   1.403       .  A
C413        C418   1.406   1_565  A
C414        C415   1.398       .  A
C414        H423   1.083       .  S
C415        C416   1.408   1_565  A
C415        H424   1.081       .  S
C416        C419   1.482       .  S
C416        C417   1.402       .  A
C417        C418   1.395       .  A
C417        H425   1.084       .  S
C418        H426   1.081       .  S
C419       H1019   1.087       .  S
C419        C420   1.344       .  D
C420        H428   1.083   1_545  S
C421        H429   1.087       .  S
C421        C422   1.345       .  D
C422        H430   1.085   1_565  S
H427       C1011   1.087       .  S
C431        C439   1.487       .  S
C431        C432   1.405   1_565  A
C431        C436   1.407       .  A
C432        C433   1.400   1_545  A
C432        H441   1.083       .  S
C433        C434   1.407       .  A
C433        H442   1.082   1_565  S
C434        C437   1.482       .  S
C434        C435   1.402       .  A
C435        C436   1.396       .  A
C435        H443   1.083       .  S
C436        H444   1.081       .  S
C437        H445   1.087       .  S
C437        C438   1.345       .  D
C438        H446   1.085       .  S
C439        H447   1.087   1_565  S
C439        C440   1.348       .  D
C440        H448   1.084       .  S
C449        C457   1.487       .  S
C449        C450   1.409       .  A
C449        C454   1.401   1_565  A
C450        C451   1.401       .  A
C450        H459   1.082       .  S
C451        C452   1.408       .  A
C451        H460   1.080       .  S
C452        C455   1.489       .  S
C452        C453   1.405   1_565  A
C453        C454   1.396       .  A
C453        H461   1.083       .  S
C454        H462   1.083       .  S
C455        H463   1.087   1_565  S
C455        C456   1.350       .  D
C456        H464   1.083       .  S
C457        H465   1.086       .  S
C457        C458   1.344       .  D
C458        H466   1.085       .  S
C467        C475   1.488       .  S
C467        C468   1.404   1_565  A
C467        C472   1.407       .  A
C468        C469   1.402   1_545  A
C468        H477   1.083       .  S
C469        C470   1.408       .  A
C469        H478   1.081   1_565  S
C470        C473   1.484       .  S
C470        C471   1.401       .  A
C471        C472   1.394       .  A
C471        H479   1.084       .  S
C472        H480   1.081       .  S
C473        H481   1.087       .  S
C473        C474   1.344       .  D
C474        H482   1.084       .  S
C475        H483   1.087   1_565  S
C475        C476   1.346       .  D
C476        H484   1.085       .  S
C485        C493   1.482       .  S
C485        C486   1.401       .  A
C485        C490   1.408       .  A
C486        C487   1.394       .  A
C486        H495   1.084       .  S
C487        C488   1.407       .  A
C487        H496   1.082       .  S
C488        C491   1.486       .  S
C488        C489   1.404       .  A
C489        C490   1.401       .  A
C489        H497   1.083   1_455  S
C490        H498   1.082       .  S
C491        H499   1.087   1_455  S
C491        C492   1.345       .  D
C492        H500   1.085       .  S
C493        H501   1.085       .  S
C493        C494   1.345       .  D
C494        H502   1.083       .  S
C503        C511   1.477       .  S
C503        C504   1.400       .  A
C503        C508   1.405       .  A
C504        C505   1.396       .  A
C504        H513   1.084       .  S
C505        C506   1.407       .  A
C505        H514   1.082       .  S
C506        C509   1.482       .  S
C506        C507   1.403       .  A
C507        C508   1.398       .  A
C507        H515   1.083       .  S
C508        H516   1.083       .  S
C509        H517   1.087       .  S
C509        C510   1.345       .  D
C510        H518   1.086   1_655  S
C511       H1111   1.085       .  S
C511        C512   1.342   1_655  D
C512        H520   1.087       .  S
H519       C1103   1.085       .  S
C521        C529   1.485       .  S
C521        C522   1.402       .  A
C521        C526   1.408       .  A
C522        C523   1.395       .  A
C522        H531   1.084       .  S
C523        C524   1.407       .  A
C523        H532   1.081       .  S
C524        C527   1.486       .  S
C524        C525   1.404   1_455  A
C525        C526   1.400   1_655  A
C525        H533   1.083       .  S
C526        H534   1.081   1_455  S
C527        H535   1.087   1_455  S
C527        C528   1.346       .  D
C528        H536   1.084       .  S
C529        H537   1.086       .  S
C529        C530   1.346       .  D
C530        H538   1.084       .  S
C539        C547   1.489       .  S
C539        C540   1.406       .  A
C539        C544   1.408   1_455  A
C540        C541   1.398       .  A
C540        H549   1.084       .  S
C541        C542   1.406   1_455  A
C541        H550   1.081       .  S
C542        C545   1.485       .  S
C542        C543   1.403       .  A
C543        C544   1.397       .  A
C543        H551   1.083       .  S
C544        H552   1.079       .  S
C545        H553   1.086       .  S
C545        C546   1.346   1_655  D
C546        H554   1.084       .  S
C547        H555   1.087       .  S
C547        C548   1.349   1_455  D
C548        H556   1.082       .  S
C557        C565   1.489       .  S
C557        C558   1.405       .  A
C557        C562   1.407       .  A
C558        C559   1.403       .  A
C558        H567   1.083       .  S
C559        C560   1.407       .  A
C559        H568   1.082       .  S
C560        C563   1.483       .  S
C560        C561   1.402       .  A
C561        C562   1.396       .  A
C561        H569   1.084       .  S
C562        H570   1.082       .  S
C563        H571   1.085   1_455  S
C563        C564   1.345       .  D
C564        H572   1.085       .  S
C565        H573   1.087       .  S
C565        C566   1.347       .  D
C566        H574   1.086       .  S
C575        C583   1.486       .  S
C575        C576   1.403       .  A
C575        C580   1.406   1_655  A
C576        C577   1.397       .  A
C576        H585   1.084       .  S
C577        C578   1.408   1_655  A
C577        H586   1.080       .  S
C578        C581   1.490       .  S
C578        C579   1.406       .  A
C579        C580   1.400       .  A
C579        H587   1.083       .  S
C580        H588   1.081       .  S
C581        H589   1.087       .  S
C581        C582   1.349   1_455  D
C582        H590   1.084       .  S
C583        H591   1.086       .  S
C583        C584   1.347   1_655  D
C584        H592   1.083       .  S
N593        C594   1.355   1_454  A
N593       C1156   1.442   1_554  S
C594       C1176   1.489   1_655  S
C595        C596   1.374       .  A
C595        H598   1.082       .  S
C596        C597   1.384   1_655  A
C596        H599   1.082       .  S
C597       C1138   1.485       .  S
N600        C601   1.355       .  A
N600       C1104   1.443       .  S
C601       C1122   1.485       .  S
C602        C603   1.375       .  A
C602        H605   1.081       .  S
C603        C604   1.387       .  A
C603        H606   1.081       .  S
C604       C1086   1.490       .  S
N607        C608   1.360       .  A
N607       C1066   1.446       .  S
C608       C1030   1.496       .  S
C609        C610   1.376       .  A
C609        H612   1.082       .  S
C610        C611   1.380       .  A
C610        H613   1.082       .  S
C611       C1050   1.482       .  S
N614        C615   1.353       .  A
N614       C1012   1.441       .  S
C615        C976   1.489       .  S
C616        C617   1.381       .  A
C616        H619   1.082       .  S
C617        C618   1.384       .  A
C617        H620   1.082       .  S
C618        C994   1.486       .  S
N621        C622   1.357       .  A
N621        C958   1.441       .  S
C622        C922   1.489       .  S
C623        C624   1.374       .  A
C623        H626   1.082       .  S
C624        C625   1.384       .  A
C624        H627   1.082       .  S
C625        C940   1.488       .  S
N628        C629   1.358       .  A
N628        C904   1.444       .  S
C629        C870   1.491       .  S
C630        C631   1.375       .  A
C630        H633   1.082       .  S
C631        C632   1.387       .  A
C631        H634   1.081       .  S
C632        C886   1.493       .  S
N635        C636   1.360       .  A
N635        C832   1.445       .  S
C636        C852   1.491       .  S
C637        C638   1.375       .  A
C637        H640   1.081       .  S
C638        C639   1.378       .  A
C638        H641   1.082       .  S
C639        C816   1.484       .  S
N642        C643   1.355       .  A
N642        C778   1.440       .  S
C643        C798   1.490       .  S
C644        C645   1.380       .  A
C644        H647   1.082       .  S
C645        C646   1.387       .  A
C645        H648   1.081       .  S
C646        C760   1.494       .  S
O649       Ni655   1.940       .  S
O649        C670   1.275       .  A
O650       Ni673   1.909       .  S
O650        C659   1.268       .  A
O651       Ni655   1.915       .  S
O651       Ni673   1.910       .  S
O651       Ni667   1.905       .  S
O651        H674   0.966       .  S
C652        C960   1.481       .  S
C652        O669   1.272       .  A
C652        O661   1.274       .  A
O653       Ni672   1.936       .  S
O653        C659   1.273       .  A
O654       Ni672   1.905       .  S
O654        C656   1.270       .  A
Ni655       O658   1.932       .  S
Ni655       O660   1.914       .  S
C656        C942   1.478       .  S
C656        O666   1.277       .  A
O657       Ni673   1.915       .  S
O657        C663   1.276       .  A
O658        C663   1.277       .  A
C659        C850   1.482       .  S
O660        C662   1.270       .  A
O661       Ni672   1.931       .  S
C662        C888   1.477       .  S
C662        O668   1.271       .  A
C663        C906   1.478       .  S
H664        O665   0.966       .  S
O665       Ni673   1.916       .  S
O665       Ni667   1.909       .  S
O665       Ni672   1.914       .  S
O666       Ni667   1.940       .  S
Ni667       O671   1.906       .  S
Ni667       O669   1.906       .  S
O668       Ni673   1.926       .  S
C670        C796   1.484       .  S
C670        O671   1.267       .  A
O675       Ni681   1.930       .  S
O675        C696   1.272       .  A
O676       Ni699   1.898       .  S
O676        C685   1.264       .  A
O677       Ni681   1.918       .  S
O677       Ni699   1.905   1_565  S
O677       Ni693   1.907       .  S
O677        H700   0.966       .  S
C678       C1068   1.478       .  S
C678        O695   1.269       .  A
C678        O687   1.277   1_565  A
O679       Ni698   1.948       .  S
O679        C685   1.275       .  A
O680       Ni698   1.899       .  S
O680        C682   1.270   1_545  A
Ni681       O684   1.928       .  S
Ni681       O686   1.907       .  S
C682       C1048   1.484       .  S
C682        O692   1.277       .  A
O683       Ni699   1.904       .  S
O683        C689   1.270   1_545  A
O684        C689   1.276       .  A
C685        C868   1.482       .  S
O686        C688   1.269       .  A
O687       Ni698   1.942       .  S
C688        C996   1.483   1_565  S
C688        O694   1.272   1_565  A
C689       C1014   1.472       .  S
H690        O691   0.966       .  S
O691       Ni699   1.912       .  S
O691       Ni693   1.918   1_545  S
O691       Ni698   1.924       .  S
O692       Ni693   1.945       .  S
Ni693       O697   1.916       .  S
Ni693       O695   1.900       .  S
O694       Ni699   1.934       .  S
C696        C924   1.478       .  S
C696        O697   1.270       .  A
O701       Ni707   1.943       .  S
O701        C722   1.275   1_545  A
O702       Ni725   1.896       .  S
O702        C711   1.264       .  A
O703       Ni707   1.927       .  S
O703       Ni725   1.904   1_655  S
O703       Ni719   1.906   1_545  S
O703        H726   0.968   1_545  S
C704       C1158   1.468       .  S
C704        O721   1.263       .  A
C704        O713   1.273       .  A
O705       Ni724   1.936       .  S
O705        C711   1.273   1_565  A
O706       Ni724   1.895       .  S
O706        C708   1.270       .  A
Ni707       O710   1.950       .  S
Ni707       O712   1.910       .  S
C708       C1140   1.479   1_455  S
C708        O718   1.279   1_455  A
O709       Ni725   1.894       .  S
O709        C715   1.264   1_455  A
O710        C715   1.276       .  A
C711        C978   1.477       .  S
O712        C714   1.271   1_655  A
O713       Ni724   1.945       .  S
C714       C1084   1.477       .  S
C714        O720   1.275       .  A
C715       C1102   1.475       .  S
H716        O717   0.965   1_545  S
O717       Ni725   1.913   1_565  S
O717       Ni719   1.906   1_455  S
O717       Ni724   1.927       .  S
O718       Ni719   1.954       .  S
Ni719       O723   1.901       .  S
Ni719       O721   1.892   1_655  S
O720       Ni725   1.943       .  S
C722       C1032   1.482       .  S
C722        O723   1.267       .  A
O727       Ni733   1.936       .  S
O727        C748   1.275   1_455  A
O728       Ni751   1.896       .  S
O728        C737   1.264       .  A
O729       Ni733   1.920       .  S
O729       Ni751   1.908       .  S
O729       Ni745   1.922   1_455  S
O729        H752   0.966       .  S
C730        C780   1.471       .  S
C730        O747   1.279       .  A
C730        O739   1.276       .  A
O731       Ni750   1.939       .  S
O731        C737   1.274   1_655  A
O732       Ni750   1.914       .  S
O732        C734   1.271       .  A
Ni733       O736   1.940       .  S
Ni733       O738   1.907       .  S
C734        C762   1.482       .  S
C734        O744   1.271       .  A
O735       Ni751   1.898       .  S
O735        C741   1.267       .  A
O736        C741   1.277       .  A
C737       C1120   1.474       .  S
O738        C740   1.270       .  A
O739       Ni750   1.922       .  S
C740        C814   1.486       .  S
C740        O746   1.275       .  A
C741        C834   1.476       .  S
H742        O743   0.966   1_455  S
O743       Ni751   1.893   1_655  S
O743       Ni745   1.902       .  S
O743       Ni750   1.909       .  S
O744       Ni745   1.931       .  S
Ni745       O749   1.905       .  S
Ni745       O747   1.920       .  S
O746       Ni751   1.939       .  S
C748       C1174   1.478       .  S
C748        O749   1.268       .  A
C753        C761   1.488       .  S
C753        C754   1.403       .  A
C753        C758   1.408       .  A
C754        C755   1.400       .  A
C754        H763   1.083       .  S
C755        C756   1.408       .  A
C755        H764   1.082       .  S
C756        C759   1.489       .  S
C756        C757   1.404       .  A
C757        C758   1.400       .  A
C757        H765   1.083       .  S
C758        H766   1.082       .  S
C759        H767   1.085       .  S
C759        C760   1.347       .  D
C760        H768   1.082       .  S
C761        H769   1.087       .  S
C761        C762   1.347       .  D
C762        H770   1.086       .  S
C771        C779   1.484       .  S
C771        C772   1.401       .  A
C771        C776   1.407       .  A
C772        C773   1.398       .  A
C772        H781   1.083       .  S
C773        C774   1.410       .  A
C773        H782   1.080       .  S
C774        C777   1.486       .  S
C774        C775   1.403       .  A
C775        C776   1.397       .  A
C775        H783   1.084       .  S
C776        H784   1.082       .  S
C777        H785   1.087       .  S
C777        C778   1.343       .  D
C778        H786   1.084       .  S
C779        H787   1.087       .  S
C779        C780   1.342       .  D
C780        H788   1.086       .  S
C789        C797   1.492       .  S
C789        C790   1.406       .  A
C789        C794   1.407       .  A
C790        C791   1.402       .  A
C790        H799   1.083       .  S
C791        C792   1.407       .  A
C791        H800   1.081       .  S
C792        C795   1.490       .  S
C792        C793   1.404       .  A
C793        C794   1.399       .  A
C793        H801   1.083       .  S
C794        H802   1.081       .  S
C795        H803   1.087       .  S
C795        C796   1.349       .  D
C796        H804   1.085       .  S
C797        H805   1.086       .  S
C797        C798   1.349       .  D
C798        H806   1.084       .  S
C807        C815   1.489       .  S
C807        C808   1.408       .  A
C807        C812   1.401       .  A
C808        C809   1.403       .  A
C808        H817   1.082       .  S
C809        C810   1.409       .  A
C809        H818   1.080       .  S
C810        C813   1.494       .  S
C810        C811   1.406       .  A
C811        C812   1.398       .  A
C811        H819   1.083       .  S
C812        H820   1.083       .  S
C813        H821   1.087       .  S
C813        C814   1.353       .  D
C814        H822   1.083       .  S
C815        H823   1.087       .  S
C815        C816   1.345       .  D
C816        H824   1.085       .  S
C825        C833   1.489       .  S
C825        C826   1.404       .  A
C825        C830   1.407       .  A
C826        C827   1.403       .  A
C826        H835   1.083       .  S
C827        C828   1.409       .  A
C827        H836   1.081       .  S
C828        C831   1.488       .  S
C828        C829   1.403       .  A
C829        C830   1.396       .  A
C829        H837   1.084       .  S
C830        H838   1.082       .  S
C831        H839   1.086       .  S
C831        C832   1.347       .  D
C832        H840   1.083       .  S
C833        H841   1.086       .  S
C833        C834   1.345       .  D
C834        H842   1.086       .  S
C843        C851   1.488       .  S
C843        C844   1.404       .  A
C843        C848   1.405       .  A
C844        C845   1.400       .  A
C844        H853   1.083       .  S
C845        C846   1.408       .  A
C845        H854   1.080       .  S
C846        C849   1.494       .  S
C846        C847   1.407       .  A
C847        C848   1.401       .  A
C847        H855   1.083       .  S
C848        H856   1.082       .  S
C849        H857   1.087       .  S
C849        C850   1.351       .  D
C850        H858   1.083       .  S
C851        H859   1.086       .  S
C851        C852   1.350       .  D
C852        H860   1.084       .  S
C861        C869   1.489       .  S
C861        C862   1.404       .  A
C861        C866   1.407       .  A
C862        C863   1.398       .  A
C862        H871   1.084       .  S
C863        C864   1.407       .  A
C863        H872   1.082       .  S
C864        C867   1.493       .  S
C864        C865   1.406       .  A
C865        C866   1.405       .  A
C865        H873   1.083       .  S
C866        H874   1.082       .  S
C867        H875   1.087       .  S
C867        C868   1.348       .  D
C868        H876   1.085       .  S
C869        C870   1.350       .  D
C870        H878   1.085       .  S
C879        C887   1.486       .  S
C879        C880   1.403       .  A
C879        C884   1.407       .  A
C880        C881   1.401       .  A
C880        H889   1.083       .  S
C881        C882   1.408       .  A
C881        H890   1.082       .  S
C882        C885   1.484       .  S
C882        C883   1.402       .  A
C883        C884   1.397       .  A
C883        H891   1.083       .  S
C884        H892   1.082       .  S
C885        H893   1.084       .  S
C885        C886   1.347       .  D
C886        H894   1.082       .  S
C887        H895   1.087       .  S
C887        C888   1.345       .  D
C888        H896   1.086       .  S
C897        C905   1.490       .  S
C897        C898   1.405       .  A
C897        C902   1.407       .  A
C898        C899   1.402       .  A
C898        H907   1.083       .  S
C899        C900   1.409       .  A
C899        H908   1.081       .  S
C900        C903   1.488       .  S
C900        C901   1.403       .  A
C901        C902   1.398       .  A
C901        H909   1.083       .  S
C902        H910   1.081       .  S
C903        H911   1.087       .  S
C903        C904   1.345       .  D
C904        H912   1.085       .  S
C905        H913   1.087       .  S
C905        C906   1.347       .  D
C906        H914   1.085       .  S
C915        C923   1.491       .  S
C915        C916   1.406       .  A
C915        C920   1.406       .  A
C916        C917   1.407       .  A
C916        H925   1.083       .  S
C917        C918   1.408       .  A
C917        H926   1.082       .  S
C918        C921   1.484       .  S
C918        C919   1.401       .  A
C919        C920   1.393       .  A
C919        H927   1.084       .  S
C920        H928   1.083       .  S
C921        H929   1.087       .  S
C921        C922   1.347       .  D
C922        H930   1.085       .  S
C923        H931   1.086       .  S
C923        C924   1.346       .  D
C924        H932   1.087       .  S
C933        C941   1.491       .  S
C933        C934   1.405       .  A
C933        C938   1.407       .  A
C934        C935   1.405       .  A
C934        H943   1.083       .  S
C935        C936   1.408       .  A
C935        H944   1.082       .  S
C936        C939   1.485       .  S
C936        C937   1.401       .  A
C937        C938   1.395       .  A
C937        H945   1.084       .  S
C938        H946   1.082       .  S
C939        H947   1.087       .  S
C939        C940   1.346       .  D
C940        H948   1.085       .  S
C941        H949   1.086       .  S
C941        C942   1.346       .  D
C942        H950   1.086       .  S
C951        C959   1.487       .  S
C951        C952   1.404       .  A
C951        C956   1.408       .  A
C952        C953   1.395       .  A
C952        H961   1.084       .  S
C953        C954   1.405       .  A
C953        H962   1.082       .  S
C954        C957   1.485       .  S
C954        C955   1.405       .  A
C955        C956   1.402       .  A
C955        H963   1.083       .  S
C956        H964   1.081       .  S
C957        H965   1.086       .  S
C957        C958   1.347       .  D
C958        H966   1.085       .  S
C959        H967   1.087       .  S
C959        C960   1.349       .  D
C960        H968   1.084       .  S
C969        C977   1.491       .  S
C969        C970   1.405   1_545  A
C969        C974   1.409       .  A
C970        C971   1.401   1_565  A
C970        H979   1.083       .  S
C971        C972   1.409       .  A
C971        H980   1.081   1_545  S
C972        C975   1.488       .  S
C972        C973   1.402       .  A
C973        C974   1.396       .  A
C973        H981   1.084       .  S
C974        H982   1.080       .  S
C975        C976   1.346       .  D
C976        H984   1.082       .  S
C977        H985   1.087   1_545  S
C977        C978   1.347       .  D
C978        H986   1.084       .  S
C987        C995   1.491       .  S
C987        C988   1.404       .  A
C987        C992   1.409   1_565  A
C988        C989   1.398       .  A
C988        H997   1.083       .  S
C989        C990   1.407   1_565  A
C989        H998   1.081       .  S
C990        C993   1.490       .  S
C990        C991   1.404       .  A
C991        C992   1.401       .  A
C991        H999   1.083       .  S
C992       H1000   1.081       .  S
C993       H1001   1.086       .  S
C993        C994   1.346       .  D
C994       H1002   1.084   1_545  S
C995       H1003   1.087       .  S
C995        C996   1.349   1_565  D
C996       H1004   1.084       .  S
C1005      C1013   1.482       .  S
C1005      C1006   1.403       .  A
C1005      C1010   1.406   1_565  A
C1006      C1007   1.398       .  A
C1006      H1015   1.083       .  S
C1007      C1008   1.407   1_565  A
C1007      H1016   1.082       .  S
C1008      C1011   1.480       .  S
C1008      C1009   1.402       .  A
C1009      C1010   1.396       .  A
C1009      H1017   1.084       .  S
C1010      H1018   1.082       .  S
C1011      C1012   1.344       .  D
C1012      H1020   1.084   1_545  S
C1013      H1021   1.087       .  S
C1013      C1014   1.344       .  D
C1014      H1022   1.086   1_565  S
C1023      C1031   1.495       .  S
C1023      C1024   1.407       .  A
C1023      C1028   1.407       .  A
C1024      C1025   1.405       .  A
C1024      H1033   1.083   1_565  S
C1025      C1026   1.408       .  A
C1025      H1034   1.081       .  S
C1026      C1029   1.491       .  S
C1026      C1027   1.404       .  A
C1027      C1028   1.396       .  A
C1027      H1035   1.084       .  S
C1028      H1036   1.080       .  S
C1029      H1037   1.083       .  S
C1029      C1030   1.351       .  D
C1030      H1038   1.083       .  S
C1031      H1039   1.087   1_565  S
C1031      C1032   1.350       .  D
C1032      H1040   1.084       .  S
C1041      C1049   1.487       .  S
C1041      C1042   1.409       .  A
C1041      C1046   1.401   1_565  A
C1042      C1043   1.402       .  A
C1042      H1051   1.082       .  S
C1043      C1044   1.408       .  A
C1043      H1052   1.080       .  S
C1044      C1047   1.490       .  S
C1044      C1045   1.405   1_565  A
C1045      C1046   1.395       .  A
C1045      H1053   1.084       .  S
C1046      H1054   1.084       .  S
C1047      H1055   1.087   1_565  S
C1047      C1048   1.352       .  D
C1048      H1056   1.083       .  S
C1049      H1057   1.086       .  S
C1049      C1050   1.344       .  D
C1050      H1058   1.085       .  S
C1059      C1067   1.491       .  S
C1059      C1060   1.405       .  A
C1059      C1064   1.407       .  A
C1060      C1061   1.403       .  A
C1060      H1069   1.083   1_565  S
C1061      C1062   1.408       .  A
C1061      H1070   1.081       .  S
C1062      C1065   1.487       .  S
C1062      C1063   1.403       .  A
C1063      C1064   1.396       .  A
C1063      H1071   1.084       .  S
C1064      H1072   1.082       .  S
C1065      H1073   1.086       .  S
C1065      C1066   1.347       .  D
C1066      H1074   1.083       .  S
C1067      H1075   1.087   1_565  S
C1067      C1068   1.347       .  D
C1068      H1076   1.085       .  S
C1077      C1085   1.486       .  S
C1077      C1078   1.403       .  A
C1077      C1082   1.408       .  A
C1078      C1079   1.396       .  A
C1078      H1087   1.084       .  S
C1079      C1080   1.407       .  A
C1079      H1088   1.081       .  S
C1080      C1083   1.488       .  S
C1080      C1081   1.405       .  A
C1081      C1082   1.401       .  A
C1081      H1089   1.083   1_455  S
C1082      H1090   1.081       .  S
C1083      H1091   1.087   1_455  S
C1083      C1084   1.346       .  D
C1084      H1092   1.085       .  S
C1085      H1093   1.085       .  S
C1085      C1086   1.347       .  D
C1086      H1094   1.082       .  S
C1095      C1103   1.479       .  S
C1095      C1096   1.401       .  A
C1095      C1100   1.405       .  A
C1096      C1097   1.397       .  A
C1096      H1105   1.084       .  S
C1097      C1098   1.408       .  A
C1097      H1106   1.082       .  S
C1098      C1101   1.486       .  S
C1098      C1099   1.404       .  A
C1099      C1100   1.400       .  A
C1099      H1107   1.083       .  S
C1100      H1108   1.083       .  S
C1101      H1109   1.087       .  S
C1101      C1102   1.345       .  D
C1102      H1110   1.086       .  S
C1103      C1104   1.344   1_655  D
C1104      H1112   1.086       .  S
C1113      C1121   1.485       .  S
C1113      C1114   1.403       .  A
C1113      C1118   1.408       .  A
C1114      C1115   1.395       .  A
C1114      H1123   1.084       .  S
C1115      C1116   1.407       .  A
C1115      H1124   1.081       .  S
C1116      C1119   1.486       .  S
C1116      C1117   1.404   1_455  A
C1117      C1118   1.399   1_655  A
C1117      H1125   1.083       .  S
C1118      H1126   1.081   1_455  S
C1119      H1127   1.087   1_455  S
C1119      C1120   1.346       .  D
C1120      H1128   1.085       .  S
C1121      H1129   1.086       .  S
C1121      C1122   1.346       .  D
C1122      H1130   1.084       .  S
C1131      C1139   1.488       .  S
C1131      C1132   1.404       .  A
C1131      C1136   1.407   1_455  A
C1132      C1133   1.397       .  A
C1132      H1141   1.084       .  S
C1133      C1134   1.407       .  A
C1133      H1142   1.080       .  S
C1134      C1137   1.489   1_455  S
C1134      C1135   1.405   1_455  A
C1135      C1136   1.398       .  A
C1135      H1143   1.083       .  S
C1136      H1144   1.080       .  S
C1137      H1145   1.086       .  S
C1137      C1138   1.348   1_655  D
C1138      H1146   1.081       .  S
C1139      H1147   1.087       .  S
C1139      C1140   1.349   1_455  D
C1140      H1148   1.083       .  S
C1149      C1157   1.486       .  S
C1149      C1150   1.404       .  A
C1149      C1154   1.406   1_455  A
C1150      C1151   1.403       .  A
C1150      H1159   1.083       .  S
C1151      C1152   1.410       .  A
C1151      H1160   1.080       .  S
C1152      C1155   1.486       .  S
C1152      C1153   1.401   1_455  A
C1153      C1154   1.391       .  A
C1153      H1161   1.084       .  S
C1154      H1162   1.081       .  S
C1155      H1163   1.087   1_455  S
C1155      C1156   1.343       .  D
C1156      H1164   1.083       .  S
C1157      H1165   1.087       .  S
C1157      C1158   1.345       .  D
C1158      H1166   1.085       .  S
C1167      C1175   1.487       .  S
C1167      C1168   1.403       .  A
C1167      C1172   1.408   1_655  A
C1168      C1169   1.396       .  A
C1168      H1177   1.084       .  S
C1169      C1170   1.406   1_655  A
C1169      H1178   1.081       .  S
C1170      C1173   1.489       .  S
C1170      C1171   1.406       .  A
C1171      C1172   1.402       .  A
C1171      H1179   1.083       .  S
C1172      H1180   1.081       .  S
C1173      H1181   1.087       .  S
C1173      C1174   1.349   1_455  D
C1174      H1182   1.085       .  S
C1175      H1183   1.084       .  S
C1175      C1176   1.347   1_655  D
C1176      H1184   1.083       .  S
