geometry optimzed in LAMMPS
_audit_creation_date              2020-12-01 
_audit_creation_method            'lammps2cif' 
_symmetry_space_group_name_H-M    'P1' 
_symmetry_Int_Tables_number       1 
_symmetry_cell_setting            triclinic 
loop_ 
_symmetry_equiv_pos_as_xyz 
  x,y,z 
_cell_length_a                    43.46285029 
_cell_length_b                    38.72869697899294 
_cell_length_c                    26.444865852310997 
_cell_angle_alpha                 88.96414002852548 
_cell_angle_beta                  102.18127678311 
_cell_angle_gamma                 90.19180072721247 
loop_ 
_atom_site_label 
_atom_site_type_symbol 
_atom_site_fract_x 
_atom_site_fract_y 
_atom_site_fract_z 
_atom_site_charge 
C1          C  0.82634666  0.08224805  0.40896654     0.29700
C2          C  0.76976401  0.04874529  0.39635344     0.29700
C3          C  0.81276514  0.06822493  0.35291012    -0.06500
C4          C  0.82577843  0.04850999  0.44290881    -0.07300
C5          C  0.79770871  0.10394411  0.42073604    -0.07200
C6          C  0.78378332  0.05146109  0.34821729    -0.06500
C7          C  0.79699530  0.03096657  0.43372427    -0.07300
C8          C  0.77035450  0.08499194  0.41763839    -0.07200
C9          C  0.78209108  0.02650025  0.31149603    -0.32600
N10         N  0.80762190  0.02752598  0.29011855     0.13900
C11         C  0.82669714  0.05265229  0.31492105    -0.32600
H12         H  0.84942840  0.05835790  0.30655960     0.15900
C13         C  0.80149762  0.00020675  0.46034815    -0.31500
N14         N  0.83018857  0.99988761  0.99268826     0.12700
C15         C  0.84563174  0.02919629  0.48179077    -0.31500
C16         C  0.74626117  0.10611171  0.42476520    -0.31800
N17         N  0.75593578  0.13911324  0.42664560     0.13200
H18         H  0.72195125  0.09846063  0.42158823     0.15800
C19         C  0.78690828  0.13844091  0.42201418    -0.31800
H20         H  0.79921371  0.16124898  0.41313104     0.15800
H21         H  0.86859092  0.03714772  0.50284661     0.15800
H22         H  0.76469530  0.50633732  0.30462146     0.15900
H23         H  0.78405352  0.48064972  0.45955260     0.15800
O24         O  0.71106838  0.16413235  0.37460647    -0.85700
O25         O  0.66293981  0.17947141  0.28968407    -0.82700
C26         C  0.63659530  0.17729578  0.30360460     0.97800
O27         O  0.62856165  0.19999870  0.33183452    -0.82800
O28         O  0.63663857  0.24632991  0.41440022    -0.85400
C29         C  0.65276612  0.23303438  0.45593379     1.02300
O30         O  0.67420306  0.21234063  0.45139842    -0.78200
O31         O  0.73631082  0.19562760  0.43741049    -0.78300
C32         C  0.73341475  0.16723644  0.41321104     1.02300
O33         O  0.74709610  0.22285387  0.35174178    -0.85700
O34         O  0.70080921  0.23978370  0.27384429    -0.82700
C35         C  0.67715235  0.25686484  0.25252323     0.97800
O36         O  0.65128799  0.25271854  0.26694299    -0.82800
O37         O  0.66544712  0.29202070  0.34897977    -0.85400
C38         C  0.66891525  0.30338889  0.39344525     1.02300
O39         O  0.68471366  0.28564991  0.43085822    -0.78200
O40         O  0.73940351  0.26514388  0.40289949    -0.78300
C41         C  0.75611886  0.25019261  0.37671195     1.02200
Cr42       Cr  0.70386309  0.20306205  0.32473416     1.93700
Cr43       Cr  0.64782195  0.24595126  0.34189866     1.93200
Cr44       Cr  0.70720548  0.23872018  0.42737291     1.39100
O45         O  0.68634970  0.22904037  0.36433268    -1.23400
C46         C  0.66047359  0.33118448  0.08897801     0.29700
C47         C  0.71702764  0.29733914  0.10263730     0.29700
C48         C  0.67488213  0.31887833  0.14546241    -0.06500
C49         C  0.66052535  0.29720068  0.05776501    -0.07300
C50         C  0.68887132  0.35253708  0.07494585    -0.07200
C51         C  0.70426372  0.30261733  0.15137324    -0.06500
C52         C  0.68938676  0.28018864  0.06673754    -0.07300
C53         C  0.71650037  0.33369673  0.07811254    -0.07200
C54         C  0.70740569  0.28027073  0.19259925    -0.32600
N55         N  0.68119764  0.28061822  0.21204772     0.13900
C56         C  0.66139344  0.30454372  0.18492484    -0.32600
H57         H  0.63811801  0.30938508  0.19152759     0.15900
C58         C  0.68706332  0.25360871  0.03336097    -0.31500
N59         N  0.65772601  0.25235411  0.50336453     0.12700
C60         C  0.64132153  0.27972463  0.01672719    -0.31500
C61         C  0.74003330  0.35597865  0.07024502    -0.31800
N62         N  0.73015605  0.38876017  0.07109101     0.13200
H63         H  0.76406587  0.34936864  0.06946136     0.15800
C64         C  0.69928106  0.38721083  0.07547942    -0.31800
H65         H  0.68647815  0.40940346  0.08438967     0.15800
H66         H  0.61844831  0.28812688  0.99546567     0.15800
H67         H  0.72638196  0.26186630  0.20408760     0.15900
H68         H  0.70695972  0.23933865  0.02600998     0.15800
O69         O  0.77373123  0.41328156  0.12638744    -0.85700
O70         O  0.82356537  0.42667145  0.20884881    -0.82700
C71         C  0.84986921  0.42521880  0.19472430     0.97800
O72         O  0.85810606  0.44915411  0.16756369    -0.82800
O73         O  0.84954423  0.49472939  0.08217254    -0.85400
C74         C  0.83363854  0.48144433  0.04108621     1.02300
O75         O  0.81171004  0.96098077  0.04661175    -0.78200
O76         O  0.74967560  0.44544933  0.06175538    -0.78300
C77         C  0.75217095  0.41685936  0.08646675     1.02300
O78         O  0.73998162  0.47318265  0.14934171    -0.85700
O79         O  0.78744154  0.48773082  0.22752284    -0.82700
C80         C  0.81106492  0.50509588  0.24777699     0.97800
O81         O  0.83617602  0.50274266  0.23052685    -0.82800
O82         O  0.82181791  0.04159045  0.14404468    -0.85400
C83         C  0.81664127  0.05231278  0.09827812     1.02300
O84         O  0.80116267  0.03375112  0.06285442    -0.78200
O85         O  0.74694227  0.01433424  0.09285927    -0.78300
C86         C  0.73104070  0.00098509  0.12259213     1.02200
Cr87       Cr  0.78283271  0.45191673  0.17537776     1.93700
Cr88       Cr  0.83878033  0.49508165  0.15498127     1.93200
Cr89       Cr  0.77897979  0.98761022  0.06990671     1.39100
O90         O  0.80011321  0.47810964  0.13396786    -1.23400
O91         O  0.62383656  0.48540919  0.34100703    -0.85700
O92         O  0.58259340  0.03285095  0.29445008    -0.82700
C93         C  0.56863766  0.05093031  0.25667245     0.97800
O94         O  0.55015458  0.03670458  0.21892539    -0.82800
O95         O  0.59204135  0.01681001  0.16555560    -0.85400
C96         C  0.61630803  0.00283639  0.15758722     1.02300
O97         O  0.62241550  0.47158940  0.17083833    -0.78200
O98         O  0.64500115  0.48563405  0.27273594    -0.78300
C99         C  0.64637091  0.49280787  0.31934059     1.02300
O100        O  0.57497044  0.43421387  0.32650914    -0.85700
O101        O  0.53057198  0.48490218  0.28543919    -0.82700
C102        C  0.51117086  0.47482975  0.24565454     0.97800
O103        O  0.52011247  0.46853415  0.20422649    -0.82800
O104        O  0.56392585  0.44845891  0.14260923    -0.85400
C105        C  0.57742759  0.41921635  0.15478925     1.02300
O106        O  0.59044643  0.41297252  0.20124247    -0.78200
O107        O  0.61954456  0.42310380  0.30354821    -0.78300
C108        C  0.59970015  0.41641657  0.33108188     1.02200
Cr109      Cr  0.57778592  0.48361608  0.30636465     1.93700
Cr110      Cr  0.55802200  0.99082493  0.18727449     1.93200
Cr111      Cr  0.61679752  0.44990691  0.23763073     1.39100
O112        O  0.58353114  0.47414525  0.24341783    -1.23400
O113        O  0.86140131  0.23123574  0.15339634    -0.85700
O114        O  0.90281543  0.27894272  0.19661911    -0.82700
C115        C  0.91697821  0.29667849  0.23359745     0.97800
O116        O  0.93575054  0.28229893  0.27147286    -0.82800
O117        O  0.89454016  0.25948353  0.32604688    -0.85400
C118        C  0.87143763  0.24336926  0.33585720     1.02300
O119        O  0.86714031  0.21216790  0.32386340    -0.78200
O120        O  0.84082979  0.22510493  0.22245119    -0.78300
C121        C  0.83874808  0.23447170  0.17602017     1.02300
O122        O  0.91027582  0.18098351  0.16301571    -0.85700
O123        O  0.95444044  0.23178768  0.20323158    -0.82700
C124        C  0.97469227  0.22171447  0.24247151     0.97800
O125        O  0.96691107  0.21442375  0.28491242    -0.82800
O126        O  0.92531427  0.19327789  0.35050574    -0.85400
C127        C  0.91420256  0.16321478  0.33878816     1.02300
O128        O  0.90230369  0.15699726  0.29232397    -0.78200
O129        O  0.86849665  0.16662155  0.19255673    -0.78300
C130        C  0.88591746  0.16274702  0.16072442     1.02200
Cr131      Cr  0.90754054  0.22976679  0.18437416     1.93700
Cr132      Cr  0.92927933  0.23559222  0.30396022     1.93200
Cr133      Cr  0.87225090  0.19188983  0.25731994     1.39100
O134        O  0.90337714  0.21889918  0.24823552    -1.23400
C135        C  0.15961820  0.08308642  0.09563759     0.29700
C136        C  0.21534176  0.04863198  0.10675006     0.29700
C137        C  0.16504623  0.05240023  0.13543120    -0.06500
C138        C  0.16411541  0.06300387  0.04584031    -0.07300
C139        C  0.19030993  0.10564239  0.10761287    -0.07200
C140        C  0.19309480  0.03543661  0.13955822    -0.06500
C141        C  0.19413330  0.04589125  0.05315368    -0.07300
C142        C  0.21786537  0.08696376  0.11400558    -0.07200
C143        C  0.19368230  0.00773657  0.17212793    -0.32600
N144        N  0.16802436  0.00870377  0.19318269     0.13900
C145        C  0.14928604  0.03482896  0.16922171    -0.32600
H146        H  0.12678345  0.04147272  0.17766545     0.15900
C147        C  0.18996901  0.01631552  0.02578174    -0.31500
N148        N  0.16023063  0.01395407  0.49853647     0.12700
C149        C  0.14383229  0.04140954  0.01141037    -0.31500
C150        C  0.24152074  0.10820371  0.10548831    -0.31800
N151        N  0.23068725  0.14052918  0.09520683     0.13200
H152        H  0.26557651  0.10039297  0.10658571     0.15800
C153        C  0.19903508  0.13946232  0.09494486    -0.31800
H154        H  0.18340663  0.16147296  0.08661304     0.15800
H155        H  0.11869095  0.04486353  0.99850818     0.15800
H156        H  0.21392440  0.49012016  0.18530477     0.15900
H157        H  0.20716494  0.49513086  0.52840398     0.15800
O158        O  0.27665766  0.16592637  0.13849445    -0.85700
O159        O  0.32291787  0.17711801  0.22435633    -0.82700
C160        C  0.34919882  0.17576673  0.21014312     0.97800
O161        O  0.35698860  0.19949899  0.18225088    -0.82800
O162        O  0.34818198  0.24623415  0.09814111    -0.85400
C163        C  0.33153527  0.23331691  0.05708269     1.02300
O164        O  0.31017391  0.21277530  0.06323310    -0.78200
O165        O  0.24798962  0.19802642  0.07912177    -0.78300
C166        C  0.25267597  0.16908665  0.10303543     1.02300
O167        O  0.23872461  0.22345637  0.16266926    -0.85700
O168        O  0.28508145  0.23573593  0.24269669    -0.82700
C169        C  0.30868484  0.25231034  0.26447409     0.97800
O170        O  0.33427472  0.25062524  0.24815411    -0.82800
O171        O  0.32024999  0.29146131  0.16480521    -0.85400
C172        C  0.31853825  0.30299923  0.12022966     1.02300
O173        O  0.30225515  0.28640719  0.08293004    -0.78200
O174        O  0.24875762  0.26745228  0.11405833    -0.78300
C175        C  0.23101346  0.25215848  0.13858649     1.02200
Cr176      Cr  0.28213624  0.20195693  0.18985052     1.93700
Cr177      Cr  0.33789472  0.24542022  0.17238266     1.93200
Cr178      Cr  0.27859638  0.24015008  0.08787886     1.39100
O179        O  0.29953476  0.22925948  0.15084967    -1.23400
C180        C  0.31893980  0.33277458  0.41775220     0.29700
C181        C  0.26327143  0.29722230  0.40766594     0.29700
C182        C  0.30671606  0.31487629  0.36560123    -0.06500
C183        C  0.32027978  0.30001771  0.45496253    -0.07300
C184        C  0.29049262  0.35258448  0.43082654    -0.07200
C185        C  0.27789393  0.29858167  0.36015718    -0.06500
C186        C  0.29134081  0.28148535  0.44750374    -0.07300
C187        C  0.26330305  0.33392322  0.42726603    -0.07200
C188        C  0.27738714  0.27335014  0.32426282    -0.32600
N189        N  0.30439458  0.27377960  0.30639735     0.13900
C190        C  0.32301376  0.29859071  0.33226021    -0.32600
H191        H  0.34715713  0.30327950  0.32941618     0.15900
C192        C  0.29631347  0.25249515  0.47801651    -0.31500
N193        N  0.32568904  0.25306502  0.00861084     0.12700
C194        C  0.34070274  0.28201092  0.49492705    -0.31500
C195        C  0.23972264  0.35584438  0.43448180    -0.31800
N196        N  0.25055116  0.38856932  0.43771642     0.13200
H197        H  0.21509510  0.34916783  0.42996739     0.15800
C198        C  0.28184074  0.38677365  0.43636558    -0.31800
H199        H  0.29625309  0.40850409  0.43113294     0.15800
H200        H  0.36383238  0.29043925  0.51452375     0.15800
H201        H  0.25904675  0.25410660  0.31450116     0.15900
H202        H  0.27880807  0.23331198  0.48129908     0.15800
O203        O  0.20815766  0.41293880  0.37966259    -0.85700
O204        O  0.15947843  0.42517215  0.29580873    -0.82700
C205        C  0.13386787  0.42336405  0.31178777     0.97800
O206        O  0.12742193  0.44558920  0.34229435    -0.82800
O207        O  0.13642749  0.50149035  0.41318453    -0.85400
C208        C  0.15321536  0.49069516  0.45564160     1.02300
O209        O  0.17413961  0.96870121  0.45257928    -0.78200
O210        O  0.23385417  0.44692917  0.43873364    -0.78300
C211        C  0.22972358  0.41720070  0.41899294     1.02300
O212        O  0.24493364  0.46790032  0.34660279    -0.85700
O213        O  0.19528947  0.48214977  0.26872734    -0.82700
C214        C  0.16924469  0.49323344  0.24401646     0.97800
O215        O  0.14498547  0.49091385  0.26357236    -0.82800
O216        O  0.16032707  0.03913440  0.33624592    -0.85400
C217        C  0.17213623  0.05467003  0.37695507     1.02300
O218        O  0.18685961  0.03851821  0.41682425    -0.78200
O219        O  0.23915621  0.01387575  0.39209840    -0.78300
C220        C  0.25535736  0.99707190  0.36721621     1.02200
Cr221      Cr  0.20071270  0.44885897  0.32505096     1.93700
Cr222      Cr  0.14496079  0.49257880  0.34070227     1.93200
Cr223      Cr  0.20690856  0.99077961  0.42196546     1.39100
O224        O  0.18439219  0.47765433  0.36221927    -1.23400
O225        O  0.10933864  0.26626319  0.32203679    -0.85700
O226        O  0.04918303  0.28465368  0.27586678    -0.82700
C227        C  0.05654613  0.30524722  0.24265141     0.97800
O228        O  0.05665278  0.29483507  0.19770823    -0.82800
O229        O  0.08870598  0.26083833  0.13887376    -0.85400
C230        C  0.11614210  0.27070056  0.16033900     1.02300
O231        O  0.12798209  0.26160207  0.20622258    -0.78200
O232        O  0.13954158  0.22718869  0.30022804    -0.78300
C233        C  0.13602176  0.25250720  0.32693650     1.02300
O234        O  0.09143038  0.19459252  0.32532703    -0.85700
O235        O  0.02954139  0.21400006  0.27682070    -0.82700
C236        C  0.00804205  0.22337201  0.23912193     0.97800
O237        O  0.01448772  0.23792296  0.19941611    -0.82800
O238        O  0.05230139  0.19744057  0.14669208    -0.85400
C239        C  0.07777249  0.18467646  0.13865687     1.02300
O240        O  0.10321913  0.19960906  0.15748012    -0.78200
O241        O  0.10370653  0.17242660  0.25591391    -0.78300
C242        C  0.10339740  0.17056965  0.30345084     1.02200
Cr243      Cr  0.07018770  0.23915794  0.29539531     1.93700
Cr244      Cr  0.05405249  0.24649971  0.17458057     1.93200
Cr245      Cr  0.11591957  0.21641870  0.22989494     1.39100
O246        O  0.07935060  0.23344801  0.23361984    -1.23400
O247        O  0.36248804  0.48428965  0.15789375    -0.85700
O248        O  0.40644475  0.03389536  0.20258669    -0.82700
C249        C  0.42071526  0.05066291  0.24058475     0.97800
O250        O  0.43952373  0.03557165  0.27772563    -0.82800
O251        O  0.39773650  0.01453713  0.33149731    -0.85400
C252        C  0.37481837  0.99812947  0.34104482     1.02300
O253        O  0.37056711  0.46362974  0.32655280    -0.78200
O254        O  0.34347077  0.47555073  0.22775373    -0.78300
C255        C  0.34018662  0.48691658  0.18210958     1.02300
O256        O  0.41352425  0.43417326  0.16582761    -0.85700
O257        O  0.45729959  0.48436362  0.20740020    -0.82700
C258        C  0.47733216  0.47388941  0.24700669     0.97800
O259        O  0.46911061  0.46588378  0.28896869    -0.82800
O260        O  0.42658382  0.44305289  0.35530095    -0.85400
C261        C  0.41469168  0.41380003  0.33976307     1.02300
O262        O  0.40859578  0.40979041  0.29187540    -0.78200
O263        O  0.37176791  0.41835166  0.19398869    -0.78300
C264        C  0.39050344  0.41412847  0.16437120     1.02200
Cr265      Cr  0.40978177  0.48261503  0.18814405     1.93700
Cr266      Cr  0.43189313  0.98908208  0.30925294     1.93200
Cr267      Cr  0.37587059  0.44314180  0.25973546     1.39100
O268        O  0.40591767  0.47114895  0.25166081    -1.23400
C269        C  0.09258830  0.38089094  0.32470762    -0.26600
C270        C  0.11072907  0.39601728  0.29212229    -0.14700
C271        C  0.10665924  0.38477283  0.24068957     0.35900
C272        C  0.08640500  0.35704185  0.22420029    -0.26100
C273        C  0.07004104  0.33989671  0.25788078    -0.15300
C274        C  0.07248669  0.35285654  0.30821390     0.37000
N275        N  0.05538004  0.33712769  0.34326871    -0.89600
H276        H  0.09498565  0.38990892  0.36390427     0.18100
H277        H  0.08476243  0.34772254  0.18534731     0.18100
N278        N  0.12333546  0.40136265  0.20539818    -0.88600
H279        H  0.04121976  0.35604469  0.35455773     0.35500
H280        H  0.07158951  0.32865779  0.37617084     0.40600
H281        H  0.11510414  0.42676438  0.19943746     0.40200
H282        H  0.11816369  0.38961282  0.16930222     0.35100
C283        C  0.15403557  0.14085106  0.32182152    -0.26600
C284        C  0.12445209  0.14515745  0.33445746    -0.14700
C285        C  0.11648774  0.12509779  0.37465774     0.35900
C286        C  0.13643885  0.09805021  0.39640396    -0.26100
C287        C  0.16376663  0.09079297  0.37805249    -0.15300
C288        C  0.17354851  0.11363646  0.34273489     0.37000
N289        N  0.20180269  0.10794153  0.32419374    -0.89600
H290        H  0.16116725  0.15741218  0.29283324     0.18100
H291        H  0.12843611  0.08008828  0.42262415     0.18100
N292        N  0.08738792  0.12969207  0.39091332    -0.88600
H293        H  0.20015338  0.08427063  0.30543727     0.35500
H294        H  0.22064815  0.10664645  0.35611315     0.40600
H295        H  0.06891343  0.12725751  0.35869723     0.40200
H296        H  0.08695812  0.15467391  0.40504053     0.35100
C297        C  0.29686897  0.03269489  0.33855339    -0.26600
C298        C  0.28820022  0.00725852  0.37100227    -0.14700
C299        C  0.31095499  0.48863675  0.40862591     0.35900
C300        C  0.34239110  0.49022724  0.40460038    -0.26100
C301        C  0.35106882  0.01362321  0.36499606    -0.15300
C302        C  0.32859374  0.03594810  0.33490285     0.37000
N303        N  0.33767438  0.05991750  0.29862523    -0.89600
H304        H  0.27899139  0.04850607  0.31461134     0.18100
H305        H  0.35946562  0.47310979  0.42835708     0.18100
N306        N  0.30171829  0.46888408  0.44901725    -0.88600
H307        H  0.31816653  0.07391320  0.27883097     0.35500
H308        H  0.34624171  0.04612857  0.27093438     0.40600
H309        H  0.28920490  0.48558992  0.46774444     0.40200
H310        H  0.32163745  0.46076487  0.47593988     0.35100
C311        C  0.36177095  0.39410353  0.34240520    -0.26600
C312        C  0.39324041  0.39423708  0.36850125    -0.14700
C313        C  0.40082293  0.37597428  0.41674015     0.35900
C314        C  0.37673452  0.35683710  0.43467767    -0.26100
C315        C  0.34488002  0.35784153  0.40748476    -0.15300
C316        C  0.33769684  0.38007629  0.36252659     0.37000
N317        N  0.30661558  0.38713166  0.33172378    -0.89600
H318        H  0.35480218  0.40584111  0.30436269     0.18100
H319        H  0.38306030  0.34091854  0.46934423     0.18100
N320        N  0.43235249  0.37507708  0.44709841    -0.88600
H321        H  0.30235514  0.41359561  0.33373878     0.35500
H322        H  0.28798668  0.37457539  0.34275068     0.40600
H323        H  0.44742178  0.38961559  0.42912524     0.40200
H324        H  0.44016262  0.34950478  0.44863704     0.35100
C325        C  0.21643980  0.25670361  0.41456017    -0.26600
C326        C  0.22889957  0.28500116  0.39170195    -0.14700
C327        C  0.20807928  0.30435632  0.35225195     0.35900
C328        C  0.17635734  0.29588013  0.33806874    -0.26100
C329        C  0.16460664  0.26682703  0.35883510    -0.15300
C330        C  0.18478925  0.24676309  0.39746598     0.37000
N331        N  0.17404334  0.21601001  0.41965255    -0.89600
H332        H  0.23091960  0.24167658  0.44491351     0.18100
H333        H  0.16143292  0.31044015  0.30686608     0.18100
N334        N  0.21920569  0.33284649  0.32566095    -0.88600
H335        H  0.18577014  0.19500437  0.40805026     0.35500
H336        H  0.14997654  0.21207960  0.40585540     0.40600
H337        H  0.20589137  0.35466134  0.32963004     0.40200
H338        H  0.21481985  0.32716461  0.28645498     0.35100
C339        C  0.39733897  0.09929408  0.28031371    -0.26600
C340        C  0.41204481  0.08766815  0.24116493    -0.14700
C341        C  0.40881081  0.10744667  0.19514113     0.35900
C342        C  0.38866470  0.13620654  0.18698928    -0.26100
C343        C  0.37136236  0.14599324  0.22380646    -0.15300
C344        C  0.37670555  0.12808885  0.27194165     0.37000
N345        N  0.36148915  0.13916294  0.31212942    -0.89600
H346        H  0.39984605  0.08423646  0.31584950     0.15700
H347        H  0.38549123  0.15028966  0.15046866     0.18100
N348        N  0.42488228  0.09702732  0.15563047    -0.88600
H349        H  0.36900439  0.12416597  0.34571564     0.35500
H350        H  0.33737940  0.13456368  0.30000046     0.40600
H351        H  0.44904167  0.09900461  0.17088440     0.40200
H352        H  0.41984786  0.11398828  0.12374077     0.35100
C353        C  0.39408678  0.35298630  0.15094389    -0.26600
C354        C  0.38362949  0.38497978  0.12926352    -0.14700
C355        C  0.35565673  0.38643296  0.09080561     0.35900
C356        C  0.33524275  0.35788852  0.08290556    -0.26100
C357        C  0.34290613  0.32817166  0.11329642    -0.15300
C358        C  0.37383194  0.32457072  0.14380274     0.37000
N359        N  0.38397606  0.29278921  0.17067022    -0.89600
H360        H  0.41584704  0.35125261  0.17982963     0.18100
H361        H  0.31227313  0.36034710  0.05739595     0.18100
N362        N  0.34617693  0.41817593  0.06409477    -0.88600
H363        H  0.38999523  0.29760578  0.21031987     0.35500
H364        H  0.40423287  0.28454277  0.15896718     0.40600
H365        H  0.32410428  0.42414291  0.07118754     0.40200
H366        H  0.34339957  0.41349574  0.02459503     0.35100
C367        C  0.17551423  0.25002632  0.09707582    -0.26600
C368        C  0.19957308  0.26584833  0.13242765    -0.14700
C369        C  0.19357225  0.29611336  0.15711563     0.35900
C370        C  0.16219089  0.30505865  0.15567619    -0.26100
C371        C  0.13790345  0.28373283  0.12976028    -0.15300
C372        C  0.14435975  0.26010737  0.09360803     0.37000
N373        N  0.11916064  0.24218841  0.06040750    -0.89600
H374        H  0.18092710  0.22889877  0.07404438     0.18100
H375        H  0.15698774  0.32468618  0.18138273     0.18100
N376        N  0.21913298  0.31642539  0.18488018    -0.88600
H377        H  0.12820950  0.22480807  0.03746986     0.35500
H378        H  0.10627745  0.26051920  0.03511413     0.40600
H379        H  0.23107711  0.30155547  0.21627029     0.40200
H380        H  0.21053625  0.33847271  0.19946984     0.35100
C381        C  0.11084112  0.12153562  0.05865810    -0.26600
C382        C  0.13045849  0.10450304  0.10113108    -0.14700
C383        C  0.12425893  0.11132400  0.15117056     0.35900
C384        C  0.09600623  0.12683270  0.15512130    -0.26100
C385        C  0.08140349  0.15000543  0.11670893    -0.15300
C386        C  0.08798939  0.14611764  0.06656411     0.37000
N387        N  0.07204205  0.16670241  0.02334614    -0.89600
H388        H  0.11527024  0.11840300  0.02020204     0.18100
H389        H  0.09103970  0.12868984  0.19329532     0.18100
N390        N  0.14756904  0.10876444  0.19879098    -0.88600
H391        H  0.08885980  0.18176002  0.01026620     0.35500
H392        H  0.05621045  0.18359493  0.03485192     0.40600
H393        H  0.17016483  0.10321344  0.19401209     0.40200
H394        H  0.14050087  0.09067128  0.22383367     0.35100
C395        C  0.26609521  0.02180278  0.08817221    -0.26600
C396        C  0.24803207  0.03278158  0.12322105    -0.14700
C397        C  0.26260791  0.03392478  0.17633389     0.35900
C398        C  0.29267528  0.51713312  0.19334720    -0.26100
C399        C  0.30958707  0.00690976  0.15998979    -0.15300
C400        C  0.29730693  0.01006372  0.10643894     0.37000
N401        N  0.31604935  0.00073434  0.07069175    -0.89600
H402        H  0.25680208  0.02382111  0.04692943     0.18100
H403        H  0.30189455  0.51593029  0.23447274     0.18100
N404        N  0.24813333  0.05142804  0.21262813    -0.88600
H405        H  0.31716479  0.02193875  0.04610273     0.35500
H406        H  0.30398775  0.98093290  0.04898653     0.40600
H407        H  0.26315443  0.07116929  0.22925722     0.40200
H408        H  0.24691070  0.53481798  0.24127627     0.35100
C409        C  0.87655204  0.37918731  0.25782766    -0.26600
C410        C  0.87142277  0.39486716  0.20836977    -0.14700
C411        C  0.88752485  0.38155574  0.17158016     0.35900
C412        C  0.90575772  0.35136284  0.18333298    -0.26100
C413        C  0.90897873  0.33414446  0.23130608    -0.15300
C414        C  0.89578492  0.34951249  0.26989214     0.37000
N415        N  0.90101385  0.33454841  0.32086538    -0.89600
H416        H  0.86543066  0.38982819  0.28710669     0.18100
H417        H  0.91583329  0.33980818  0.15348451     0.18100
N418        N  0.88403250  0.39767136  0.12124602    -0.88600
H419        H  0.87917622  0.32966459  0.33008540     0.35500
H420        H  0.91239131  0.35297526  0.34667899     0.40600
H421        H  0.86059552  0.39463852  0.10197409     0.40200
H422        H  0.89781897  0.38514224  0.09921615     0.35100
C423        C  0.86844735  0.07781446  0.10226463    -0.26600
C424        C  0.83552386  0.08178625  0.08740418    -0.14700
C425        C  0.82255155  0.11500049  0.08003728     0.35900
C426        C  0.84218931  0.14339297  0.09404706    -0.26100
C427        C  0.87401635  0.13872312  0.11896492    -0.15300
C428        C  0.88786590  0.10609129  0.11946484     0.37000
N429        N  0.92035854  0.10111847  0.14407904    -0.89600
H430        H  0.87844755  0.05210572  0.10769695     0.18100
H431        H  0.83145598  0.16868136  0.09343447     0.18100
N432        N  0.78926750  0.12027653  0.06470274    -0.88600
H433        H  0.92662979  0.07512825  0.14318131     0.35500
H434        H  0.93388640  0.11484104  0.12221712     0.40600
H435        H  0.77843622  0.10832510  0.09214579     0.40200
H436        H  0.78141850  0.10801973  0.02947719     0.35100
C437        C  0.67610427  0.01583272  0.08207459    -0.26600
C438        C  0.70110462  0.01648644  0.12537507    -0.14700
C439        C  0.69584280  0.02726902  0.17318677     0.35900
C440        C  0.66527211  0.03242773  0.17881560    -0.26100
C441        C  0.64020598  0.02308607  0.13937861    -0.15300
C442        C  0.64508379  0.01922065  0.08895552     0.37000
N443        N  0.61868855  0.01615738  0.04631658    -0.89600
H444        H  0.68045942  0.00917898  0.04456350     0.18100
H445        H  0.66113558  0.03691784  0.21684341     0.18100
N446        N  0.72072625  0.02914683  0.21792813    -0.88600
H447        H  0.62644197  0.01301034  0.01183831     0.35500
H448        H  0.60636335  0.03951118  0.04268433     0.40600
H449        H  0.73812694  0.54360369  0.21051117     0.40200
H450        H  0.72871618  0.50290575  0.22741542     0.35100
C451        C  0.62438726  0.38373621  0.06374560    -0.26600
C452        C  0.62833211  0.34979507  0.08320870    -0.14700
C453        C  0.60330099  0.33624672  0.10448265     0.35900
C454        C  0.58388734  0.35915919  0.12456394    -0.26100
C455        C  0.58500436  0.39504706  0.11529155    -0.15300
C456        C  0.60283287  0.40635223  0.07870307     0.37000
N457        N  0.60169577  0.44090533  0.05830343    -0.89600
H458        H  0.63880324  0.39347400  0.03805035     0.18100
H459        H  0.56833057  0.34898507  0.14827366     0.18100
N460        N  0.59543153  0.30019680  0.10250817    -0.88600
H461        H  0.62333855  0.45221306  0.07402049     0.35500
H462        H  0.58384657  0.45546970  0.06814928     0.40600
H463        H  0.61505916  0.28488558  0.11678539     0.40200
H464        H  0.58777303  0.29401574  0.06359893     0.35100
C465        C  0.77583768  0.29925455  0.13561692    -0.26600
C466        C  0.74912531  0.27906083  0.11571622    -0.14700
C467        C  0.75280411  0.24255569  0.12101284     0.35900
C468        C  0.78297260  0.22831245  0.13628864    -0.26100
C469        C  0.80939590  0.24952173  0.14847707    -0.15300
C470        C  0.80604391  0.28539381  0.14681440     0.37000
N471        N  0.83306684  0.30735912  0.16190178    -0.89600
H472        H  0.77333688  0.32576680  0.14583298     0.18100
H473        H  0.78558497  0.20058011  0.14194398     0.18100
N474        N  0.72636498  0.21995963  0.11812559    -0.88600
H475        H  0.82629188  0.33329361  0.16077204     0.35500
H476        H  0.84687586  0.30489367  0.13424236     0.40600
H477        H  0.72794266  0.20804875  0.15438263     0.40200
H478        H  0.72818298  0.20047185  0.09202760     0.35100
C479        C  0.61056639  0.13435575  0.23759234    -0.26600
C480        C  0.61470068  0.14779065  0.28754646    -0.14700
C481        C  0.59733682  0.13310658  0.32216134     0.35900
C482        C  0.57831792  0.10398103  0.30751227    -0.26100
C483        C  0.57599959  0.08868874  0.25904654    -0.15300
C484        C  0.59082536  0.10572076  0.22244043     0.37000
N485        N  0.58691343  0.09472942  0.16997761    -0.89600
H486        H  0.62269002  0.14628063  0.20993555     0.18100
H487        H  0.56720803  0.09130771  0.33589359     0.18100
N488        N  0.60050690  0.14650170  0.37338912    -0.88600
H489        H  0.56901525  0.07653091  0.16079863     0.35500
H490        H  0.60809097  0.08370322  0.16564766     0.40600
H491        H  0.62369636  0.14212755  0.39318464     0.40200
H492        H  0.58605357  0.13301179  0.39389842     0.35100
C493        C  0.61522433  0.32658356  0.37431718    -0.26600
C494        C  0.64687832  0.33098556  0.39999234    -0.14700
C495        C  0.65707019  0.36351709  0.41882621     0.35900
C496        C  0.63647670  0.39178690  0.40576429    -0.26100
C497        C  0.60787319  0.38830829  0.36956615    -0.15300
C498        C  0.59593448  0.35519120  0.35706327     0.37000
N499        N  0.56592168  0.35092877  0.32239621    -0.89600
H500        H  0.60703133  0.30116766  0.36117362     0.18100
H501        H  0.64456537  0.41735342  0.41731218     0.18100
N502        N  0.68927783  0.36852370  0.44427378    -0.88600
H503        H  0.56050254  0.32471359  0.31749599     0.35500
H504        H  0.56774638  0.36072620  0.28603941     0.40600
H505        H  0.69390721  0.35174525  0.47617534     0.40200
H506        H  0.69257805  0.39357070  0.45846218     0.35100
C507        C  0.79352674  0.27996402  0.33488270    -0.26600
C508        C  0.78772184  0.26250735  0.37828887    -0.14700
C509        C  0.81265263  0.24939661  0.41637106     0.35900
C510        C  0.84273984  0.24819333  0.40533433    -0.26100
C511        C  0.84759914  0.26059153  0.35752856    -0.15300
C512        C  0.82345535  0.27932989  0.32397528     0.37000
N513        N  0.82722989  0.29445401  0.27576388    -0.89600
H514        H  0.77407777  0.29069146  0.30638305     0.18100
H515        H  0.86139295  0.23423800  0.43125341     0.18100
N516        N  0.80657491  0.23436057  0.46339800    -0.88600
H517        H  0.81173102  0.28152360  0.24677904     0.35500
H518        H  0.84981130  0.29073377  0.26932794     0.40600
H519        H  0.79792556  0.25396670  0.48326023     0.40200
H520        H  0.82756921  0.22596312  0.48744564     0.35100
C521        C  0.89010241  0.15272726  0.41483675    -0.26600
C522        C  0.90593754  0.13907758  0.37846803    -0.14700
C523        C  0.90367087  0.10307045  0.37026547     0.35900
C524        C  0.88183036  0.08354500  0.39124662    -0.26100
C525        C  0.85904594  0.09980070  0.41347052    -0.15300
C526        C  0.86686432  0.13325675  0.43282629     0.37000
N527        N  0.85342006  0.14657509  0.47333007    -0.89600
H528        H  0.89336352  0.17959326  0.42539318     0.18100
H529        H  0.88037806  0.05602968  0.38477165     0.18100
N530        N  0.92178746  0.08596431  0.33855297    -0.88600
H531        H  0.87163416  0.14869340  0.50596176     0.35500
H532        H  0.84574258  0.17171480  0.46289439     0.40600
H533        H  0.93808244  0.10279493  0.32741024     0.40200
H534        H  0.90625724  0.07823525  0.30486230     0.35100
C535        C  0.72468603  0.00875980  0.41068312    -0.26600
C536        C  0.73592495  0.03548532  0.38285909    -0.14700
C537        C  0.71414271  0.05236438  0.34226649     0.35900
C538        C  0.68380306  0.03958045  0.32685932    -0.26100
C539        C  0.67475773  0.00936102  0.34885542    -0.15300
C540        C  0.69450036  0.49514703  0.39140095     0.37000
N541        N  0.68479796  0.46491879  0.41583212    -0.89600
H542        H  0.73864476  0.99891489  0.44629352     0.18100
H543        H  0.66736364  0.05300994  0.29657792     0.18100
N544        N  0.72257323  0.08309743  0.31716436    -0.88600
H545        H  0.70148107  0.45824790  0.44918524     0.35500
H546        H  0.68463069  0.44475661  0.39002373     0.40600
H547        H  0.70709580  0.10278435  0.32195715     0.40200
H548        H  0.71922130  0.07884597  0.27757045     0.35100
C549        C  0.82634865  0.08224694  0.90896417     0.29700
C550        C  0.76976611  0.04874441  0.89635051     0.29700
C551        C  0.81276742  0.06822348  0.85290764    -0.06500
C552        C  0.82578024  0.04850935  0.94290695    -0.07300
C553        C  0.79771068  0.10394325  0.92073289    -0.07200
C554        C  0.78378544  0.05146009  0.84821456    -0.06500
C555        C  0.79699730  0.03096576  0.93372163    -0.07300
C556        C  0.77035643  0.08499120  0.91763485    -0.07200
C557        C  0.78209244  0.02649964  0.81149271    -0.32600
N558        N  0.80762332  0.02752467  0.79011551     0.13900
C559        C  0.82669921  0.05265037  0.81491858    -0.32600
H560        H  0.84943078  0.05835511  0.80655772     0.15900
C561        C  0.80149948  0.00020632  0.96034629    -0.31500
N562        N  0.83018751  0.99988700  0.49268782     0.12700
C563        C  0.84563287  0.02919681  0.98179119    -0.31500
C564        C  0.74626327  0.10611100  0.92476205    -0.31800
N565        N  0.75593819  0.13911250  0.92664397     0.13200
H566        H  0.72195328  0.09846003  0.92158461     0.15800
C567        C  0.78691071  0.13844010  0.92201260    -0.31800
H568        H  0.79921647  0.16124825  0.91313072     0.15800
H569        H  0.86859122  0.03714932  0.00284903     0.15800
H570        H  0.76469370  0.50632964  0.80463223     0.15900
H571        H  0.78405323  0.48064537  0.95955831     0.15800
O572        O  0.71107012  0.16413126  0.87460698    -0.85700
O573        O  0.66294090  0.17946837  0.78968508    -0.82700
C574        C  0.63659703  0.17729138  0.80360733     0.97800
O575        O  0.62856363  0.19999333  0.83183893    -0.82800
O576        O  0.63664011  0.24632522  0.91440367    -0.85400
C577        C  0.65276946  0.23303091  0.95593674     1.02300
O578        O  0.67420669  0.21233807  0.95140005    -0.78200
O579        O  0.73631378  0.19562741  0.93740884    -0.78300
C580        C  0.73341721  0.16723582  0.91321025     1.02300
O581        O  0.74709661  0.22285342  0.85173978    -0.85700
O582        O  0.70080795  0.23978159  0.77384342    -0.82700
C583        C  0.67715019  0.25686174  0.75252329     0.97800
O584        O  0.65128632  0.25271419  0.76694429    -0.82800
O585        O  0.66544393  0.29201776  0.84897942    -0.85400
C586        C  0.66891252  0.30338617  0.89344480     1.02300
O587        O  0.68471328  0.28564832  0.93085718    -0.78200
O588        O  0.73940348  0.26514412  0.90289591    -0.78300
C589        C  0.75611904  0.25019271  0.87670885     1.02200
Cr590      Cr  0.70386374  0.20306032  0.82473390     1.93700
Cr591      Cr  0.64782169  0.24594700  0.84190072     1.93200
Cr592      Cr  0.70720708  0.23871926  0.92737196     1.39100
O593        O  0.68635045  0.22903838  0.86433281    -1.23400
C594        C  0.66046877  0.33118516  0.58898032     0.29700
C595        C  0.71702261  0.29733996  0.60263737     0.29700
C596        C  0.67487754  0.31887762  0.64546416    -0.06500
C597        C  0.66052027  0.29720194  0.55776552    -0.07300
C598        C  0.68886650  0.35253822  0.57494828    -0.07200
C599        C  0.70425926  0.30261723  0.65137386    -0.06500
C600        C  0.68938165  0.28018987  0.56673753    -0.07300
C601        C  0.71649535  0.33369784  0.57811382    -0.07200
C602        C  0.70740205  0.28026991  0.69259905    -0.32600
N603        N  0.68119410  0.28061574  0.71204771     0.13900
C604        C  0.66138917  0.30454105  0.68492584    -0.32600
H605        H  0.63811367  0.30938125  0.69152909     0.15900
C606        C  0.68705860  0.25361075  0.53335983    -0.31500
N607        N  0.65773037  0.25235147  0.00336675     0.12700
C608        C  0.64131696  0.27972691  0.51672580    -0.31500
C609        C  0.74002827  0.35597961  0.57024571    -0.31800
N610        N  0.73015139  0.38876123  0.57109233     0.13200
H611        H  0.76406064  0.34936936  0.56946098     0.15800
C612        C  0.69927651  0.38721200  0.57548166    -0.31800
H613        H  0.68647401  0.40940471  0.58439268     0.15800
H614        H  0.61844400  0.28812967  0.49546386     0.15800
H615        H  0.72637899  0.26186621  0.70408675     0.15900
H616        H  0.70695521  0.23934109  0.52600879     0.15800
O617        O  0.77372866  0.41328113  0.62638595    -0.85700
O618        O  0.82356327  0.42666836  0.70884688    -0.82700
C619        C  0.84986735  0.42521784  0.69472318     0.97800
O620        O  0.85810438  0.44915524  0.66756631    -0.82800
O621        O  0.84954047  0.49473010  0.58217459    -0.85400
C622        C  0.83363466  0.48144688  0.54108669     1.02300
O623        O  0.81171229  0.96097629  0.54661032    -0.78200
O624        O  0.74967050  0.44545117  0.56175888    -0.78300
C625        C  0.75216683  0.41686015  0.58646769     1.02300
O626        O  0.73997960  0.47318068  0.64934825    -0.85700
O627        O  0.78743973  0.48772558  0.72752941    -0.82700
C628        C  0.81106156  0.50509349  0.74778179     0.97800
O629        O  0.83617224  0.50274389  0.73052946    -0.82800
O630        O  0.82181748  0.04158644  0.64404156    -0.85400
C631        C  0.81663784  0.05230820  0.59827445     1.02300
O632        O  0.80115991  0.03374526  0.56285213    -0.78200
O633        O  0.74694106  0.01432535  0.59285549    -0.78300
C634        C  0.73104016  0.00097664  0.62258956     1.02200
Cr635      Cr  0.78283068  0.45191427  0.67537985     1.93700
Cr636      Cr  0.83877693  0.49508231  0.65498381     1.93200
Cr637      Cr  0.77898033  0.98760316  0.56990504     1.39100
O638        O  0.80011025  0.47810925  0.63397057    -1.23400
O639        O  0.62382873  0.48540580  0.84102331    -0.85700
O640        O  0.58259695  0.03284771  0.79444942    -0.82700
C641        C  0.56863961  0.05092672  0.75667277     0.97800
O642        O  0.55015600  0.03670048  0.71892660    -0.82800
O643        O  0.59204148  0.01680664  0.66555280    -0.85400
C644        C  0.61630787  0.00283301  0.65758299     1.02300
O645        O  0.62241167  0.47158581  0.67085607    -0.78200
O646        O  0.64499521  0.48562877  0.77275429    -0.78300
C647        C  0.64636389  0.49280369  0.81935821     1.02300
O648        O  0.57496246  0.43421009  0.82652305    -0.85700
O649        O  0.53056442  0.48489851  0.78544862    -0.82700
C650        C  0.51116393  0.47482749  0.74566213     0.97800
O651        O  0.52010643  0.46853297  0.70423448    -0.82800
O652        O  0.56392213  0.44845735  0.64262188    -0.85400
C653        C  0.57742298  0.41921434  0.65480142     1.02300
O654        O  0.59044023  0.41296930  0.70125509    -0.78200
O655        O  0.61953650  0.42309919  0.80356245    -0.78300
C656        C  0.59969185  0.41641212  0.83109556     1.02200
Cr657      Cr  0.57777836  0.48361254  0.80637792     1.93700
Cr658      Cr  0.55802359  0.99082086  0.68727476     1.93200
Cr659      Cr  0.61679139  0.44990275  0.73764643     1.39100
O660        O  0.58352498  0.47414174  0.74343184    -1.23400
O661        O  0.86139407  0.23123316  0.65338884    -0.85700
O662        O  0.90280922  0.27893999  0.69660775    -0.82700
C663        C  0.91697379  0.29667559  0.73358486     0.97800
O664        O  0.93574738  0.28229575  0.77145852    -0.82800
O665        O  0.89453865  0.25948415  0.82603839    -0.85400
C666        C  0.87143604  0.24337122  0.83585102     1.02300
O667        O  0.86713727  0.21216982  0.82385836    -0.78200
O668        O  0.84082491  0.22510693  0.72244674    -0.78300
C669        C  0.83874219  0.23447191  0.67601474     1.02300
O670        O  0.91026741  0.18098007  0.66300844    -0.85700
O671        O  0.95443287  0.23178386  0.70321810    -0.82700
C672        C  0.97468468  0.22170838  0.74245631     0.97800
O673        O  0.96690443  0.21441840  0.78489801    -0.82800
O674        O  0.92531073  0.19327740  0.85049650    -0.85400
C675        C  0.91419837  0.16321438  0.83878079     1.02300
O676        O  0.90229661  0.15699642  0.79231775    -0.78200
O677        O  0.86848817  0.16662116  0.69255140    -0.78300
C678        C  0.88590821  0.16274524  0.66071812     1.02200
Cr679      Cr  0.90753329  0.22976381  0.68436414     1.93700
Cr680      Cr  0.92927554  0.23559034  0.80394900     1.93200
Cr681      Cr  0.87224483  0.19189026  0.75731441     1.39100
O682        O  0.90337138  0.21889763  0.74822670    -1.23400
C683        C  0.15962084  0.08307972  0.59563144     0.29700
C684        C  0.21534628  0.04862689  0.60674250     0.29700
C685        C  0.16505282  0.05239641  0.63543036    -0.06500
C686        C  0.16411665  0.06299317  0.54583699    -0.07300
C687        C  0.19031232  0.10563733  0.60759895    -0.07200
C688        C  0.19310234  0.03543424  0.63955766    -0.06500
C689        C  0.19413485  0.04588102  0.55314937    -0.07300
C690        C  0.21786810  0.08695925  0.61398956    -0.07200
C691        C  0.19369242  0.00773594  0.67213162    -0.32600
N692        N  0.16803445  0.00870217  0.69318615     0.13900
C693        C  0.14929419  0.03482508  0.66922278    -0.32600
H694        H  0.12679074  0.04146673  0.67766509     0.15900
C695        C  0.18996946  0.01630303  0.52578287    -0.31500
N696        N  0.16023091  0.01396739  0.99853290     0.12700
C697        C  0.14383269  0.04139744  0.51141148    -0.31500
C698        C  0.24152270  0.10819861  0.60546884    -0.31800
N699        N  0.23068938  0.14052405  0.59518872     0.13200
H700        H  0.26557833  0.10038777  0.60656510     0.15800
C701        C  0.19903732  0.13945736  0.59493002    -0.31800
H702        H  0.18340893  0.16146809  0.58660050     0.15800
H703        H  0.11869137  0.04485180  0.49850958     0.15800
H704        H  0.21392454  0.49011818  0.68530533     0.15900
H705        H  0.20717128  0.49513927  0.02839458     0.15800
O706        O  0.27666213  0.16591756  0.63847575    -0.85700
O707        O  0.32291942  0.17710278  0.72434557    -0.82700
C708        C  0.34920173  0.17575471  0.71013661     0.97800
O709        O  0.35699246  0.19948996  0.68225015    -0.82800
O710        O  0.34818748  0.24623123  0.59814628    -0.85400
C711        C  0.33154186  0.23331770  0.55708372     1.02300
O712        O  0.31017944  0.21277531  0.56322762    -0.78200
O713        O  0.24799364  0.19802158  0.57910938    -0.78300
C714        C  0.25267960  0.16908028  0.60301853     1.02300
O715        O  0.23872634  0.22344019  0.66266032    -0.85700
O716        O  0.28508027  0.23571598  0.74269532    -0.82700
C717        C  0.30868136  0.25229398  0.76447336     0.97800
O718        O  0.33427236  0.25061183  0.74815594    -0.82800
O719        O  0.32025036  0.29145173  0.66481291    -0.85400
C720        C  0.31854258  0.30299254  0.62024003     1.02300
O721        O  0.30225922  0.28640405  0.58293673    -0.78200
O722        O  0.24875933  0.26744271  0.61406114    -0.78300
C723        C  0.23101381  0.25214306  0.63858114     1.02200
Cr724      Cr  0.28213819  0.20194222  0.68984099     1.93700
Cr725      Cr  0.33789664  0.24541121  0.67238586     1.93200
Cr726      Cr  0.27860020  0.24014566  0.58787699     1.39100
O727        O  0.29953739  0.22924995  0.65084697    -1.23400
C728        C  0.31892760  0.33276485  0.91774111     0.29700
C729        C  0.26326040  0.29721074  0.90765636     0.29700
C730        C  0.30670457  0.31486575  0.86559048    -0.06500
C731        C  0.32026856  0.30000910  0.95495249    -0.07300
C732        C  0.29048031  0.35257402  0.93081476    -0.07200
C733        C  0.27788311  0.29856920  0.86014709    -0.06500
C734        C  0.29133031  0.28147554  0.94749544    -0.07300
C735        C  0.26329119  0.33391225  0.92725486    -0.07200
C736        C  0.27737901  0.27333524  0.82425626    -0.32600
N737        N  0.30438735  0.27376495  0.80639306     0.13900
C738        C  0.32300408  0.29857901  0.83225308    -0.32600
H739        H  0.34714750  0.30326892  0.82941035     0.15900
C740        C  0.29630402  0.25248771  0.97801359    -0.31500
N741        N  0.32569799  0.25306988  0.50861510     0.12700
C742        C  0.34069247  0.28200552  0.99491859    -0.31500
C743        C  0.23971118  0.35583301  0.93447388    -0.31800
N744        N  0.25053998  0.38855800  0.93771060     0.13200
H745        H  0.21508376  0.34915631  0.92996106     0.15800
C746        C  0.28182914  0.38676272  0.93635757    -0.31800
H747        H  0.29624161  0.40849352  0.93112685     0.15800
H748        H  0.36382157  0.29043599  0.01451440     0.15800
H749        H  0.25904009  0.25408994  0.81449613     0.15900
H750        H  0.27879879  0.23330535  0.98130132     0.15800
O751        O  0.20814429  0.41292848  0.87966394    -0.85700
O752        O  0.15946756  0.42516257  0.79580924    -0.82700
C753        C  0.13385653  0.42335758  0.81178698     0.97800
O754        O  0.12741152  0.44558536  0.84229126    -0.82800
O755        O  0.13642735  0.50149075  0.91318186    -0.85400
C756        C  0.15321647  0.49069825  0.95564032     1.02300
O757        O  0.17413976  0.96871036  0.95258233    -0.78200
O758        O  0.23384820  0.44691986  0.93872621    -0.78300
C759        C  0.22971294  0.41719020  0.91899028     1.02300
O760        O  0.24492685  0.46788172  0.84659633    -0.85700
O761        O  0.19528327  0.48213242  0.76871914    -0.82700
C762        C  0.16924007  0.49322197  0.74401042     0.97800
O763        O  0.14498060  0.49090544  0.76356657    -0.82800
O764        O  0.16033679  0.03913619  0.83624034    -0.85400
C765        C  0.17214465  0.05467329  0.87694865     1.02300
O766        O  0.18686655  0.03852264  0.91682023    -0.78200
O767        O  0.23916342  0.01387180  0.89210230    -0.78300
C768        C  0.25536399  0.99706507  0.86722238     1.02200
Cr769      Cr  0.20070368  0.44884514  0.82504753     1.93700
Cr770      Cr  0.14495671  0.49257359  0.84069685     1.93200
Cr771      Cr  0.20691207  0.99078184  0.92196830     1.39100
O772        O  0.18438645  0.47764509  0.86221344    -1.23400
O773        O  0.10932894  0.26624953  0.82202018    -0.85700
O774        O  0.04917361  0.28464036  0.77584650    -0.82700
C775        C  0.05654160  0.30523435  0.74263620     0.97800
O776        O  0.05665098  0.29482280  0.69769292    -0.82800
O777        O  0.08869773  0.26081817  0.63885120    -0.85400
C778        C  0.11613480  0.27067779  0.66031450     1.02300
O779        O  0.12797385  0.26158244  0.70619995    -0.78200
O780        O  0.13953233  0.22717529  0.80021056    -0.78300
C781        C  0.13601199  0.25249310  0.82692058     1.02300
O782        O  0.09142055  0.19458101  0.82531349    -0.85700
O783        O  0.02953272  0.21398678  0.77680089    -0.82700
C784        C  0.00803373  0.22336259  0.73910443     0.97800
O785        O  0.01447981  0.23791510  0.69940013    -0.82800
O786        O  0.05229003  0.19742458  0.64667596    -0.85400
C787        C  0.07776107  0.18465699  0.63864426     1.02300
O788        O  0.10320798  0.19958927  0.65746607    -0.78200
O789        O  0.10369265  0.17241259  0.75590011    -0.78300
C790        C  0.10338703  0.17055774  0.80343799     1.02200
Cr791      Cr  0.07017814  0.23914499  0.79537755     1.93700
Cr792      Cr  0.05404474  0.24648609  0.67456273     1.93200
Cr793      Cr  0.11590944  0.21640190  0.72987842     1.39100
O794        O  0.07934185  0.23343403  0.73360243    -1.23400
O795        O  0.36248063  0.48427872  0.65789858    -0.85700
O796        O  0.40645247  0.03388557  0.70258705    -0.82700
C797        C  0.42072214  0.05065352  0.74058516     0.97800
O798        O  0.43952963  0.03556281  0.77772818    -0.82800
O799        O  0.39774359  0.01453123  0.83150293    -0.85400
C800        C  0.37482416  0.99812584  0.84104987     1.02300
O801        O  0.37055931  0.46361823  0.82655587    -0.78200
O802        O  0.34346216  0.47553711  0.72775658    -0.78300
C803        C  0.34017780  0.48690201  0.68211210     1.02300
O804        O  0.41352320  0.43417061  0.66583402    -0.85700
O805        O  0.45729244  0.48436530  0.70740986    -0.82700
C806        C  0.47732506  0.47388605  0.74701302     0.97800
O807        O  0.46910323  0.46587423  0.78897229    -0.82800
O808        O  0.42657791  0.44304106  0.85530617    -0.85400
C809        C  0.41468473  0.41378932  0.83976553     1.02300
O810        O  0.40859093  0.40978117  0.79187788    -0.78200
O811        O  0.37176685  0.41834157  0.69399015    -0.78300
C812        C  0.39050568  0.41412097  0.66437689     1.02200
Cr813      Cr  0.40977446  0.48261070  0.68815240     1.93700
Cr814      Cr  0.43189804  0.98907375  0.80925658     1.93200
Cr815      Cr  0.37586469  0.44313092  0.75973832     1.39100
O816        O  0.40591060  0.47114076  0.75166756    -1.23400
C817        C  0.09257709  0.38088017  0.82470257    -0.26600
C818        C  0.11071747  0.39601047  0.79211977    -0.14700
C819        C  0.10665217  0.38476480  0.74068801     0.35900
C820        C  0.08640135  0.35703144  0.72419587    -0.26100
C821        C  0.07003681  0.33988347  0.75787242    -0.15300
C822        C  0.07248019  0.35284164  0.80820679     0.37000
N823        N  0.05537711  0.33710632  0.84326157    -0.89600
H824        H  0.09497234  0.38989718  0.86389933     0.18100
H825        H  0.08476187  0.34771268  0.68534333     0.18100
N826        N  0.12333065  0.40135536  0.70540042    -0.88600
H827        H  0.04121358  0.35601898  0.85455300     0.35500
H828        H  0.07158864  0.32863822  0.87616240     0.40600
H829        H  0.11509735  0.42675616  0.69943567     0.40200
H830        H  0.11816349  0.38960401  0.66930547     0.35100
C831        C  0.15402844  0.14084688  0.82179943    -0.26600
C832        C  0.12444722  0.14515070  0.83444456    -0.14700
C833        C  0.11649083  0.12509449  0.87465463     0.35900
C834        C  0.13644748  0.09805182  0.89640240    -0.26100
C835        C  0.16377268  0.09079577  0.87804260    -0.15300
C836        C  0.17354659  0.11363686  0.84271388     0.37000
N837        N  0.20179733  0.10794315  0.82416217    -0.89600
H838        H  0.16115419  0.15740591  0.79280322     0.18100
H839        H  0.12845029  0.08009151  0.92263024     0.18100
N840        N  0.08739359  0.12968685  0.89091929    -0.88600
H841        H  0.20014799  0.08427052  0.80541050     0.35500
H842        H  0.22064658  0.10665279  0.85607601     0.40600
H843        H  0.06891626  0.12724653  0.85870875     0.40200
H844        H  0.08696219  0.15467020  0.90504041     0.35100
C845        C  0.29687469  0.03268619  0.83855287    -0.26600
C846        C  0.28820712  0.00725106  0.87100510    -0.14700
C847        C  0.31094757  0.48862177  0.90862357     0.35900
C848        C  0.34238535  0.49021517  0.90460816    -0.26100
C849        C  0.35107619  0.01362148  0.86500224    -0.15300
C850        C  0.32859967  0.03594267  0.83490508     0.37000
N851        N  0.33767973  0.05991206  0.79862691    -0.89600
H852        H  0.27899633  0.04849462  0.81460730     0.18100
H853        H  0.35945964  0.47310023  0.92837060     0.18100
N854        N  0.30170775  0.46887330  0.94901569    -0.88600
H855        H  0.31817118  0.07390535  0.77882965     0.35500
H856        H  0.34624988  0.04612343  0.77093878     0.40600
H857        H  0.28919187  0.48558113  0.96773593     0.40200
H858        H  0.32162620  0.46075920  0.97594290     0.35100
C859        C  0.36176202  0.39409325  0.84239973    -0.26600
C860        C  0.39323093  0.39422690  0.86849954    -0.14700
C861        C  0.40081126  0.37596454  0.91673877     0.35900
C862        C  0.37672173  0.35682767  0.93467312    -0.26100
C863        C  0.34486811  0.35783189  0.90747652    -0.15300
C864        C  0.33768655  0.38006658  0.86251850     0.37000
N865        N  0.30660585  0.38712256  0.83171411    -0.89600
H866        H  0.35479479  0.40583039  0.80435681     0.18100
H867        H  0.38304610  0.34090945  0.96934016     0.18100
N868        N  0.43233995  0.37506690  0.94710024    -0.88600
H869        H  0.30234570  0.41358655  0.83372947     0.35500
H870        H  0.28797660  0.37456653  0.84274039     0.40600
H871        H  0.44741041  0.38960525  0.92912935     0.40200
H872        H  0.44014987  0.34949448  0.94863941     0.35100
C873        C  0.21642923  0.25669018  0.91454925    -0.26600
C874        C  0.22888861  0.28498892  0.89169273    -0.14700
C875        C  0.20806808  0.30434437  0.85224344     0.35900
C876        C  0.17634654  0.29586704  0.83805834    -0.26100
C877        C  0.16459638  0.26681257  0.85882171    -0.15300
C878        C  0.18477881  0.24674883  0.89745334     0.37000
N879        N  0.17403273  0.21599569  0.91963953    -0.89600
H880        H  0.23090955  0.24166271  0.94490174     0.18100
H881        H  0.16142210  0.31042749  0.80685620     0.18100
N882        N  0.21919388  0.33283612  0.82565484    -0.88600
H883        H  0.18576055  0.19499015  0.90803918     0.35500
H884        H  0.14996622  0.21206468  0.90584023     0.40600
H885        H  0.20587879  0.35465012  0.82962524     0.40200
H886        H  0.21480879  0.32715574  0.78644834     0.35100
C887        C  0.39734567  0.09928581  0.78031086    -0.26600
C888        C  0.41205096  0.08765866  0.74116222    -0.14700
C889        C  0.40881411  0.10743450  0.69513523     0.35900
C890        C  0.38866679  0.13619348  0.68698150    -0.26100
C891        C  0.37136578  0.14598159  0.72379965    -0.15300
C892        C  0.37671080  0.12807929  0.77193665     0.37000
N893        N  0.36149469  0.13915435  0.81212423    -0.89600
H894        H  0.39985414  0.08422982  0.81584839     0.15700
H895        H  0.38549131  0.15027482  0.65045916     0.18100
N896        N  0.42488350  0.09701275  0.65562315    -0.88600
H897        H  0.36901083  0.12415874  0.84571160     0.35500
H898        H  0.33738503  0.13455411  0.79999655     0.40600
H899        H  0.44904322  0.09899148  0.67087342     0.40200
H900        H  0.41984677  0.11397135  0.62373087     0.35100
C901        C  0.39409283  0.35297691  0.65097666    -0.26600
C902        C  0.38364162  0.38496734  0.62927633    -0.14700
C903        C  0.35567780  0.38641513  0.59079853     0.35900
C904        C  0.33526122  0.35787233  0.58290257    -0.26100
C905        C  0.34291502  0.32816208  0.61331384    -0.15300
C906        C  0.37383662  0.32456260  0.64383650     0.37000
N907        N  0.38397511  0.29278415  0.67071805    -0.89600
H908        H  0.41584793  0.35124641  0.67987474     0.18100
H909        H  0.31229680  0.36032785  0.55737645     0.18100
N910        N  0.34620906  0.41815199  0.56406019    -0.88600
H911        H  0.38998753  0.29760660  0.71036638     0.35500
H912        H  0.40423507  0.28453342  0.65902889     0.40600
H913        H  0.32413127  0.42412520  0.57112462     0.40200
H914        H  0.34344539  0.41346212  0.52456507     0.35100
C915        C  0.17551536  0.24999647  0.59706762    -0.26600
C916        C  0.19957081  0.26582653  0.63241610    -0.14700
C917        C  0.19356413  0.29609182  0.65709780     0.35900
C918        C  0.16218120  0.30503530  0.65564651    -0.26100
C919        C  0.13789748  0.28370384  0.62973455    -0.15300
C920        C  0.14435880  0.26007135  0.59359510     0.37000
N921        N  0.11916338  0.24214100  0.56040372    -0.89600
H922        H  0.18093268  0.22886718  0.57404340     0.18100
H923        H  0.15697371  0.32466549  0.68134545     0.18100
N924        N  0.21912085  0.31640476  0.68487233    -0.88600
H925        H  0.12821548  0.22475417  0.53747921     0.35500
H926        H  0.10627826  0.26046382  0.53509771     0.40600
H927        H  0.23106044  0.30153493  0.71626620     0.40200
H928        H  0.21052025  0.33845138  0.69945781     0.35100
C929        C  0.11083428  0.12151806  0.55865005    -0.26600
C930        C  0.13045860  0.10449385  0.60112440    -0.14700
C931        C  0.12425906  0.11131527  0.65116361     0.35900
C932        C  0.09600261  0.12681589  0.65511487    -0.26100
C933        C  0.08139293  0.14998393  0.61670057    -0.15300
C934        C  0.08797653  0.14609388  0.56655444     0.37000
N935        N  0.07201976  0.16666946  0.52333300    -0.89600
H936        H  0.11526102  0.11838339  0.52019290     0.18100
H937        H  0.09103698  0.12867240  0.69328940     0.18100
N938        N  0.14757101  0.10876245  0.69878243    -0.88600
H939        H  0.08883106  0.18173349  0.51024653     0.35500
H940        H  0.05618311  0.18355608  0.53483757     0.40600
H941        H  0.17016718  0.10321574  0.69400108     0.40200
H942        H  0.14050733  0.09066830  0.72382828     0.35100
C943        C  0.26610218  0.02179985  0.58816549    -0.26600
C944        C  0.24803826  0.03277919  0.62321345    -0.14700
C945        C  0.26261520  0.03392712  0.67632556     0.35900
C946        C  0.29267163  0.51713051  0.69334515    -0.26100
C947        C  0.30959462  0.00691064  0.65998523    -0.15300
C948        C  0.29731540  0.01006441  0.60643382     0.37000
N949        N  0.31606106  0.00074060  0.57068840    -0.89600
H950        H  0.25680836  0.02381563  0.54692258     0.18100
H951        H  0.30189334  0.51593387  0.73446989     0.18100
N952        N  0.24814157  0.05143418  0.71261752    -0.88600
H953        H  0.31717401  0.02194631  0.54610062     0.35500
H954        H  0.30400425  0.98093730  0.54898131     0.40600
H955        H  0.26316400  0.07117472  0.72924551     0.40200
H956        H  0.24690632  0.53482997  0.74126783     0.35100
C957        C  0.87655107  0.37918493  0.75782210    -0.26600
C958        C  0.87142060  0.39486579  0.70836493    -0.14700
C959        C  0.88752046  0.38155451  0.67157241     0.35900
C960        C  0.90575219  0.35136051  0.68332180    -0.26100
C961        C  0.90897483  0.33414159  0.73129482    -0.15300
C962        C  0.89578337  0.34950958  0.76988354     0.37000
N963        N  0.90101424  0.33454510  0.82085666    -0.89600
H964        H  0.86543121  0.38982562  0.78710310     0.18100
H965        H  0.91582585  0.33980583  0.65347121     0.18100
N966        N  0.88402709  0.39767158  0.62123912    -0.88600
H967        H  0.87917729  0.32966231  0.83007983     0.35500
H968        H  0.91239351  0.35297139  0.84666951     0.40600
H969        H  0.86058955  0.39464049  0.60196898     0.40200
H970        H  0.89781195  0.38514229  0.59920675     0.35100
C971        C  0.86844006  0.07781520  0.60224802    -0.26600
C972        C  0.83551594  0.08178413  0.58739707    -0.14700
C973        C  0.82254051  0.11499713  0.58003862     0.35900
C974        C  0.84217666  0.14339074  0.59404760    -0.26100
C975        C  0.87400518  0.13872258  0.61895814    -0.15300
C976        C  0.88785724  0.10609286  0.61944864     0.37000
N977        N  0.92035166  0.10112222  0.64405381    -0.89600
H978        H  0.87844252  0.05210737  0.60767361     0.18100
H979        H  0.83144165  0.16867779  0.59344138     0.18100
N980        N  0.78925557  0.12027013  0.56471458    -0.88600
H981        H  0.92662477  0.07513300  0.64314975     0.35500
H982        H  0.93387561  0.11484863  0.62218954     0.40600
H983        H  0.77842876  0.10831505  0.59216033     0.40200
H984        H  0.78140378  0.10801550  0.52948796     0.35100
C985        C  0.67610385  0.01582428  0.58207060    -0.26600
C986        C  0.70110380  0.01647747  0.62537174    -0.14700
C987        C  0.69584199  0.02726201  0.67318250     0.35900
C988        C  0.66527145  0.03242417  0.67880959    -0.26100
C989        C  0.64020518  0.02308274  0.63937275    -0.15300
C990        C  0.64508336  0.01921519  0.58895022     0.37000
N991        N  0.61868833  0.01615321  0.54631062    -0.89600
H992        H  0.68045912  0.00916937  0.54456003     0.18100
H993        H  0.66113467  0.03691628  0.71683676     0.18100
N994        N  0.72072505  0.02913946  0.71792454    -0.88600
H995        H  0.62644202  0.01300406  0.51183302     0.35500
H996        H  0.60636504  0.03950828  0.54267667     0.40600
H997        H  0.73812797  0.54359369  0.71053510     0.40200
H998        H  0.72871665  0.50289353  0.72742923     0.35100
C999        C  0.62438296  0.38373797  0.56375440    -0.26600
C1000       C  0.62832752  0.34979591  0.58321367    -0.14700
C1001       C  0.60329670  0.33624665  0.60448747     0.35900
C1002       C  0.58388385  0.35915816  0.62457230    -0.26100
C1003       C  0.58500093  0.39504640  0.61530296    -0.15300
C1004       C  0.60282909  0.40635325  0.57871483     0.37000
N1005       N  0.60169189  0.44090711  0.55831780    -0.89600
H1006       H  0.63879842  0.39347684  0.53805910     0.18100
H1007       H  0.56832728  0.34898296  0.64828159     0.18100
N1008       N  0.59542663  0.30019690  0.60250908    -0.88600
H1009       H  0.62333438  0.45221512  0.57403613     0.35500
H1010       H  0.58384212  0.45547070  0.56816324     0.40600
H1011       H  0.61505405  0.28488503  0.61678460     0.40200
H1012       H  0.58776798  0.29401775  0.56359907     0.35100
C1013       C  0.77583247  0.29925505  0.63561539    -0.26600
C1014       C  0.74912001  0.27906152  0.61571483    -0.14700
C1015       C  0.75279860  0.24255633  0.62101044     0.35900
C1016       C  0.78296701  0.22831298  0.63628463    -0.26100
C1017       C  0.80939028  0.24952222  0.64847253    -0.15300
C1018       C  0.80603857  0.28539429  0.64681070     0.37000
N1019       N  0.83306171  0.30735948  0.66189662    -0.89600
H1020       H  0.77333190  0.32576712  0.64583261     0.18100
H1021       H  0.78557938  0.20058061  0.64193948     0.18100
N1022       N  0.72635948  0.21996032  0.61812408    -0.88600
H1023       H  0.82628685  0.33329397  0.66076802     0.35500
H1024       H  0.84686973  0.30489433  0.63423571     0.40600
H1025       H  0.72793782  0.20804909  0.65438106     0.40200
H1026       H  0.72817689  0.20047278  0.59202544     0.35100
C1027       C  0.61056749  0.13435236  0.73759395    -0.26600
C1028       C  0.61470263  0.14778618  0.78754886    -0.14700
C1029       C  0.59733943  0.13310133  0.82216408     0.35900
C1030       C  0.57831956  0.10397669  0.80751386    -0.26100
C1031       C  0.57600051  0.08868530  0.75904729    -0.15300
C1032       C  0.59082622  0.10571764  0.72244151     0.37000
N1033       N  0.58691446  0.09472631  0.66997874    -0.89600
H1034       H  0.62269084  0.14627767  0.70993713     0.18100
H1035       H  0.56721000  0.09130284  0.83589516     0.18100
N1036       N  0.60051143  0.14649451  0.87339339    -0.88600
H1037       H  0.56901565  0.07652852  0.66079939     0.35500
H1038       H  0.60809172  0.08369899  0.66564967     0.40600
H1039       H  0.62370119  0.14211933  0.89318674     0.40200
H1040       H  0.58605867  0.13300402  0.89390306     0.35100
C1041       C  0.61522009  0.32657859  0.87431916    -0.26600
C1042       C  0.64687422  0.33098155  0.89999325    -0.14700
C1043       C  0.65706437  0.36351258  0.91883168     0.35900
C1044       C  0.63646900  0.39178143  0.90577563    -0.26100
C1045       C  0.60786483  0.38830303  0.86957883    -0.15300
C1046       C  0.59592780  0.35518567  0.85707226     0.37000
N1047       N  0.56591374  0.35092296  0.82240881    -0.89600
H1048       H  0.60702821  0.30116293  0.86117256     0.18100
H1049       H  0.64455707  0.41734795  0.91732545     0.18100
N1050       N  0.68927221  0.36852057  0.94427696    -0.88600
H1051       H  0.56049618  0.32470765  0.81750491     0.35500
H1052       H  0.56773530  0.36072395  0.78605249     0.40600
H1053       H  0.69390443  0.35173889  0.97617456     0.40200
H1054       H  0.69257089  0.39356621  0.95847109     0.35100
C1055       C  0.79352604  0.27996561  0.83487934    -0.26600
C1056       C  0.78772183  0.26250798  0.87828520    -0.14700
C1057       C  0.81265318  0.24939754  0.91636676     0.35900
C1058       C  0.84274046  0.24819641  0.90533007    -0.26100
C1059       C  0.84759901  0.26059486  0.85752401    -0.15300
C1060       C  0.82345448  0.27933248  0.82397114     0.37000
N1061       N  0.82722802  0.29445619  0.77575897    -0.89600
H1062       H  0.77407664  0.29069263  0.80638011     0.18100
H1063       H  0.86139405  0.23424137  0.93124859     0.18100
N1064       N  0.80657604  0.23435924  0.96339264    -0.88600
H1065       H  0.81172882  0.28152537  0.74677514     0.35500
H1066       H  0.84980918  0.29073585  0.76932191     0.40600
H1067       H  0.79792572  0.25396392  0.98325622     0.40200
H1068       H  0.82757068  0.22596226  0.98743978     0.35100
C1069       C  0.89010261  0.15272665  0.91483330    -0.26600
C1070       C  0.90593694  0.13907732  0.87846337    -0.14700
C1071       C  0.90367175  0.10307005  0.87026223     0.35900
C1072       C  0.88183217  0.08354401  0.89124454    -0.26100
C1073       C  0.85904779  0.09979936  0.91346879    -0.15300
C1074       C  0.86686578  0.13325538  0.93282463     0.37000
N1075       N  0.85342278  0.14657262  0.97333052    -0.89600
H1076       H  0.89336305  0.17959285  0.92538901     0.18100
H1077       H  0.88038033  0.05602864  0.88476989     0.18100
N1078       N  0.92178881  0.08596450  0.83854992    -0.88600
H1079       H  0.87163781  0.14869064  0.00596096     0.35500
H1080       H  0.84574484  0.17171239  0.96289653     0.40600
H1081       H  0.93808258  0.10279609  0.82740562     0.40200
H1082       H  0.90625871  0.07823396  0.80486009     0.35100
C1083       C  0.72468886  0.00875810  0.91067989    -0.26600
C1084       C  0.73592733  0.03548411  0.88285626    -0.14700
C1085       C  0.71414521  0.05236244  0.84226286     0.35900
C1086       C  0.68380601  0.03957760  0.82685489    -0.26100
C1087       C  0.67476123  0.00935784  0.84885092    -0.15300
C1088       C  0.69449574  0.49514166  0.89141444     0.37000
N1089       N  0.68479456  0.46491269  0.91584565    -0.89600
H1090       H  0.73864728  0.99891377  0.94629086     0.18100
H1091       H  0.66736660  0.05300654  0.79657288     0.18100
N1092       N  0.72257566  0.08309519  0.81715994    -0.88600
H1093       H  0.70147984  0.45824003  0.94919522     0.35500
H1094       H  0.68462394  0.44475141  0.89003466     0.40600
H1095       H  0.70709768  0.10278200  0.82195091     0.40200
H1096       H  0.71922485  0.07884273  0.77756636     0.35100
C1097       C  0.82621558  0.58266681  0.40813290     0.29700
C1098       C  0.76963571  0.54920424  0.39553789     0.29700
C1099       C  0.81268375  0.56855402  0.35213030    -0.06500
C1100       C  0.82561472  0.54898961  0.44225783    -0.07300
C1101       C  0.79755637  0.60441113  0.41970424    -0.07200
C1102       C  0.78373301  0.55175084  0.34748028    -0.06500
C1103       C  0.79680682  0.53148020  0.43312205    -0.07300
C1104       C  0.77020798  0.58546906  0.41665882    -0.07200
C1105       C  0.78217456  0.52661371  0.31105433    -0.32600
N1106       N  0.80773625  0.52760769  0.28975651     0.13900
C1107       C  0.82668285  0.55290922  0.31428419    -0.32600
H1108       H  0.84935282  0.55871890  0.30577018     0.15900
C1109       C  0.80122189  0.50082186  0.46004616    -0.31500
N1110       N  0.82992769  0.50047772  0.99234435     0.12700
C1111       C  0.84542062  0.52972659  0.48130403    -0.31500
C1112       C  0.74609584  0.60658151  0.42368485    -0.31800
N1113       N  0.75575294  0.63957144  0.42537204     0.13200
H1114       H  0.72178551  0.59892863  0.42050983     0.15800
C1115       C  0.78672184  0.63890287  0.42074118    -0.31800
H1116       H  0.79899770  0.66169093  0.41169460     0.15800
H1117       H  0.86839629  0.53765929  0.50232132     0.15800
H1118       H  0.76454919  0.00629107  0.30492005     0.15900
H1119       H  0.78437505  0.97996643  0.45970058     0.15800
O1120       O  0.71109805  0.66459762  0.37280267    -0.85700
O1121       O  0.66304997  0.68002961  0.28784594    -0.82700
C1122       C  0.63660973  0.67782396  0.30150459     0.97800
O1123       O  0.62845095  0.70054794  0.32959224    -0.82800
O1124       O  0.63627193  0.74677983  0.41235522    -0.85400
C1125       C  0.65223595  0.73337300  0.45392784     1.02300
O1126       O  0.67360513  0.71257658  0.44941363    -0.78200
O1127       O  0.73591374  0.69589967  0.43620692    -0.78300
C1128       C  0.73323241  0.66764171  0.41173166     1.02300
O1129       O  0.74714000  0.72349951  0.35067340    -0.85700
O1130       O  0.70098529  0.74051658  0.27251961    -0.82700
C1131       C  0.67727568  0.75738586  0.25087381     0.97800
O1132       O  0.65138828  0.75321650  0.26517871    -0.82800
O1133       O  0.66559142  0.79240504  0.34744147    -0.85400
C1134       C  0.66884994  0.80364509  0.39194528     1.02300
O1135       O  0.68447731  0.78585192  0.42940305    -0.78200
O1136       O  0.73935143  0.76541691  0.40238239    -0.78300
C1137       C  0.75613205  0.75068354  0.37608651     1.02200
Cr1138     Cr  0.70394429  0.70366243  0.32321228     1.93700
Cr1139     Cr  0.64777032  0.74643700  0.34003392     1.93200
Cr1140     Cr  0.70688064  0.73895547  0.42605642     1.39100
O1141       O  0.68625979  0.72945846  0.36277725    -1.23400
C1142       C  0.66027397  0.83150298  0.08733117     0.29700
C1143       C  0.71683868  0.79761458  0.10032429     0.29700
C1144       C  0.67492110  0.81919771  0.14367820    -0.06500
C1145       C  0.66020757  0.79750852  0.05597848    -0.07300
C1146       C  0.68856051  0.85283608  0.07305857    -0.07200
C1147       C  0.70421411  0.80277119  0.14921101    -0.06500
C1148       C  0.68908412  0.78047584  0.06465387    -0.07300
C1149       C  0.71617152  0.83399129  0.07582870    -0.07200
C1150       C  0.70727773  0.78020648  0.19017540    -0.32600
N1151       N  0.68125552  0.78089049  0.21010296     0.13900
C1152       C  0.66157116  0.80505193  0.18337328    -0.32600
H1153       H  0.63844636  0.81019956  0.19041220     0.15900
C1154       C  0.68664242  0.75394519  0.03119521    -0.31500
N1155       N  0.65725937  0.75269978  0.50139001     0.12700
C1156       C  0.64090570  0.78006638  0.01496516    -0.31500
C1157       C  0.73973846  0.85635967  0.06844357    -0.31800
N1158       N  0.72991512  0.88907587  0.07014361     0.13200
H1159       H  0.76377969  0.84979383  0.06764216     0.15800
C1160       C  0.69906749  0.88746554  0.07455809    -0.31800
H1161       H  0.68636341  0.90952039  0.08419586     0.15800
H1162       H  0.61799595  0.78848567  0.99387787     0.15800
H1163       H  0.72604237  0.76149774  0.20119860     0.15900
H1164       H  0.70650235  0.73979325  0.02349186     0.15800
O1165       O  0.77325997  0.91340923  0.12621618    -0.85700
O1166       O  0.82307003  0.92655791  0.20875940    -0.82700
C1167       C  0.84942222  0.92516895  0.19480420     0.97800
O1168       O  0.85779574  0.94917847  0.16796266    -0.82800
O1169       O  0.84959266  0.99444171  0.08253371    -0.85400
C1170       C  0.83377213  0.98102073  0.04151654     1.02300
O1171       O  0.81164434  0.46129308  0.04616423    -0.78200
O1172       O  0.74957867  0.94562153  0.06138208    -0.78300
C1173       C  0.75190592  0.91706218  0.08603578     1.02300
O1174       O  0.73973732  0.97353539  0.14906817    -0.85700
O1175       O  0.78723200  0.98778049  0.22763631    -0.82700
C1176       C  0.81086510  0.00514404  0.24792661     0.97800
O1177       O  0.83593213  0.00292307  0.23054952    -0.82800
O1178       O  0.82174179  0.54150073  0.14437538    -0.85400
C1179       C  0.81668045  0.55241061  0.09873389     1.02300
O1180       O  0.80112966  0.53398726  0.06314756    -0.78200
O1181       O  0.74711431  0.51425309  0.09354053    -0.78300
C1182       C  0.73123193  0.50070528  0.12311214     1.02200
Cr1183     Cr  0.78248187  0.95203818  0.17526667     1.93700
Cr1184     Cr  0.83862252  0.99508516  0.15510640     1.93200
Cr1185     Cr  0.77900570  0.48767312  0.07007662     1.39100
O1186       O  0.79990587  0.97819192  0.13397060    -1.23400
O1187       O  0.62378553  0.98486174  0.34216475    -0.85700
O1188       O  0.58239659  0.53313314  0.29331071    -0.82700
C1189       C  0.56868953  0.55109803  0.25518877     0.97800
O1190       O  0.55022835  0.53678478  0.21749291    -0.82800
O1191       O  0.59180179  0.51640410  0.16409196    -0.85400
C1192       C  0.61602987  0.50236452  0.15615161     1.02300
O1193       O  0.62269912  0.97200190  0.17199420    -0.78200
O1194       O  0.64505949  0.98528522  0.27403274    -0.78300
C1195       C  0.64640487  0.99226346  0.32069051     1.02300
O1196       O  0.57458817  0.93405654  0.32678080    -0.85700
O1197       O  0.53054625  0.98503085  0.28586765    -0.82700
C1198       C  0.51112884  0.97506938  0.24601306     0.97800
O1199       O  0.52014986  0.96856329  0.20470137    -0.82800
O1200       O  0.56417998  0.94892118  0.14290048    -0.85400
C1201       C  0.57758624  0.91958353  0.15474334     1.02300
O1202       O  0.59049667  0.91309258  0.20116875    -0.78200
O1203       O  0.61912672  0.92271079  0.30376579    -0.78300
C1204       C  0.59919880  0.91611304  0.33118853     1.02200
Cr1205     Cr  0.57774109  0.98340672  0.30712604     1.93700
Cr1206     Cr  0.55790328  0.49064336  0.18640989     1.93200
Cr1207     Cr  0.61679378  0.94983852  0.23829344     1.39100
O1208       O  0.58355331  0.97408045  0.24417113    -1.23400
O1209       O  0.86183052  0.73205513  0.15174754    -0.85700
O1210       O  0.90337414  0.77950864  0.19551346    -0.82700
C1211       C  0.91733110  0.79720555  0.23270561     0.97800
O1212       O  0.93595461  0.78282058  0.27074756    -0.82800
O1213       O  0.89444274  0.76027885  0.32491747    -0.85400
C1214       C  0.87119985  0.74433216  0.33452970     1.02300
O1215       O  0.86666491  0.71322567  0.32218590    -0.78200
O1216       O  0.84097172  0.72663377  0.22056558    -0.78300
C1217       C  0.83907220  0.73570437  0.17405527     1.02300
O1218       O  0.91059831  0.68142410  0.16242546    -0.85700
O1219       O  0.95486593  0.73210903  0.20281979    -0.82700
C1220       C  0.97498061  0.72201560  0.24222989     0.97800
O1221       O  0.96698373  0.71485382  0.28454243    -0.82800
O1222       O  0.92488611  0.69384289  0.34928909    -0.85400
C1223       C  0.91360062  0.66386607  0.33743796     1.02300
O1224       O  0.90151747  0.65775796  0.29099452    -0.78200
O1225       O  0.86832273  0.66771115  0.19099960    -0.78300
C1226       C  0.88611948  0.66334503  0.15987765     1.02200
Cr1227     Cr  0.90794940  0.73031816  0.18341041     1.93700
Cr1228     Cr  0.92921069  0.73617880  0.30308230     1.93200
Cr1229     Cr  0.87194318  0.69300596  0.25572243     1.39100
O1230       O  0.90341884  0.71962902  0.24713126    -1.23400
C1231       C  0.16048951  0.58302994  0.09616054     0.29700
C1232       C  0.21607865  0.54798236  0.10709416     0.29700
C1233       C  0.16605942  0.55273359  0.13659430    -0.06500
C1234       C  0.16458539  0.56240190  0.04668470    -0.07300
C1235       C  0.19137262  0.60528982  0.10728665    -0.07200
C1236       C  0.19409783  0.53562582  0.14088227    -0.06500
C1237       C  0.19438017  0.54487756  0.05393214    -0.07300
C1238       C  0.21882189  0.58636277  0.11339510    -0.07200
C1239       C  0.19464712  0.50820764  0.17389272    -0.32600
N1240       N  0.16883382  0.50925982  0.19455664     0.13900
C1241       C  0.15017828  0.53535862  0.17037158    -0.32600
H1242       H  0.12757437  0.54199034  0.17843894     0.15900
C1243       C  0.18972869  0.51522254  0.02682680    -0.31500
N1244       N  0.16000290  0.51344287  0.49931924     0.12700
C1245       C  0.14398323  0.54119100  0.01217356    -0.31500
C1246       C  0.24256496  0.60734080  0.10463826    -0.31800
N1247       N  0.23188183  0.63973222  0.09455124     0.13200
H1248       H  0.26656035  0.59935539  0.10561713     0.15800
C1249       C  0.20027056  0.63898083  0.09461964    -0.31800
H1250       H  0.18481690  0.66114805  0.08664672     0.15800
H1251       H  0.11892033  0.54516592  0.99905107     0.15800
H1252       H  0.21306153  0.98976549  0.18345300     0.15900
H1253       H  0.20775854  0.99660166  0.52724572     0.15800
O1254       O  0.27767290  0.66516181  0.13845568    -0.85700
O1255       O  0.32380266  0.67703757  0.22436323    -0.82700
C1256       C  0.34971644  0.67478970  0.20929689     0.97800
O1257       O  0.35749097  0.69798896  0.18051439    -0.82800
O1258       O  0.34931794  0.74512770  0.09637511    -0.85400
C1259       C  0.33239449  0.73264659  0.05528985     1.02300
O1260       O  0.31111190  0.71203266  0.06150371    -0.78200
O1261       O  0.24931852  0.69693255  0.07813504    -0.78300
C1262       C  0.25390741  0.66817930  0.10251275     1.02300
O1263       O  0.23970814  0.72269895  0.16152606    -0.85700
O1264       O  0.28622855  0.73605300  0.24111749    -0.82700
C1265       C  0.31003475  0.75227308  0.26306276     0.97800
O1266       O  0.33563748  0.75021666  0.24665936    -0.82800
O1267       O  0.32329830  0.79118573  0.16273510    -0.85400
C1268       C  0.31927148  0.80264657  0.11755887     1.02300
O1269       O  0.30267538  0.78547841  0.08125816    -0.78200
O1270       O  0.24948853  0.76639998  0.11229889    -0.78300
C1271       C  0.23180877  0.75113986  0.13695427     1.02200
Cr1272     Cr  0.28318335  0.70171669  0.18905578     1.93700
Cr1273     Cr  0.33928686  0.74444799  0.17064904     1.93200
Cr1274     Cr  0.27953868  0.73919505  0.08646495     1.39100
O1275       O  0.30059330  0.72878177  0.14954192    -1.23400
C1276       C  0.31960305  0.83291025  0.41680826     0.29700
C1277       C  0.26403264  0.79722109  0.40605688     0.29700
C1278       C  0.30783519  0.81475060  0.36466014    -0.06500
C1279       C  0.32085107  0.80023567  0.45422052    -0.07300
C1280       C  0.29099282  0.85266446  0.42945952    -0.07200
C1281       C  0.27906134  0.79834269  0.35892823    -0.06500
C1282       C  0.29191459  0.78167016  0.44651373    -0.07300
C1283       C  0.26380035  0.83401630  0.42521944    -0.07200
C1284       C  0.27884282  0.77302464  0.32323275    -0.32600
N1285       N  0.30589398  0.77358309  0.30541250     0.13900
C1286       C  0.32436562  0.79848879  0.33149496    -0.32600
H1287       H  0.34850189  0.80336818  0.32878786     0.15900
C1288       C  0.29688777  0.75249702  0.47671422    -0.31500
N1289       N  0.32630526  0.75291063  0.00723604     0.12700
C1290       C  0.34129298  0.78198308  0.49390381    -0.31500
C1291       C  0.24014288  0.85590402  0.43231656    -0.31800
N1292       N  0.25102823  0.88862154  0.43652962     0.13200
H1293       H  0.21548800  0.84923247  0.42733777     0.15800
C1294       C  0.28238559  0.88682794  0.43568357    -0.31800
H1295       H  0.29698504  0.90867316  0.43175865     0.15800
H1296       H  0.36452223  0.79020933  0.51334763     0.15800
H1297       H  0.26055037  0.75373899  0.31335884     0.15900
H1298       H  0.27944971  0.73313128  0.47955204     0.15800
O1299       O  0.20891530  0.91327473  0.37840559    -0.85700
O1300       O  0.16008104  0.92532296  0.29515158    -0.82700
C1301       C  0.13457976  0.92309603  0.31144194     0.97800
O1302       O  0.12806675  0.94508554  0.34223743    -0.82800
O1303       O  0.13657823  0.00124168  0.41276369    -0.85400
C1304       C  0.15348763  0.99079625  0.45531273     1.02300
O1305       O  0.17378435  0.46856528  0.45269550    -0.78200
O1306       O  0.23423977  0.94703349  0.43821745    -0.78300
C1307       C  0.23029702  0.91739650  0.41799607     1.02300
O1308       O  0.24536266  0.96882240  0.34578393    -0.85700
O1309       O  0.19531825  0.98292645  0.26804002    -0.82700
C1310       C  0.16899235  0.99319201  0.24319871     0.97800
O1311       O  0.14488927  0.99045548  0.26307340    -0.82800
O1312       O  0.16049564  0.53942098  0.33692673    -0.85400
C1313       C  0.17234078  0.55481870  0.37775394     1.02300
O1314       O  0.18685297  0.53845894  0.41755043    -0.78200
O1315       O  0.23899153  0.51343335  0.39220207    -0.78300
C1316       C  0.25509984  0.49620733  0.36762617     1.02200
Cr1317     Cr  0.20119234  0.94940012  0.32423112     1.93700
Cr1318     Cr  0.14512419  0.99223831  0.34032622     1.93200
Cr1319     Cr  0.20666440  0.49063275  0.42233587     1.39100
O1320       O  0.18469519  0.97774336  0.36177839    -1.23400
O1321       O  0.10980122  0.76661546  0.32141296    -0.85700
O1322       O  0.04945747  0.78459804  0.27500612    -0.82700
C1323       C  0.05711433  0.80508045  0.24195621     0.97800
O1324       O  0.05731588  0.79459153  0.19709255    -0.82800
O1325       O  0.08920804  0.76011125  0.13840030    -0.85400
C1326       C  0.11670213  0.76986478  0.15971152     1.02300
O1327       O  0.12841611  0.76114200  0.20578119    -0.78200
O1328       O  0.13997967  0.72732635  0.30008217    -0.78300
C1329       C  0.13651807  0.75290373  0.32629581     1.02300
O1330       O  0.09198231  0.69497178  0.32584278    -0.85700
O1331       O  0.02989821  0.71411997  0.27689735    -0.82700
C1332       C  0.00841871  0.72347166  0.23909155     0.97800
O1333       O  0.01495228  0.73785467  0.19931086    -0.82800
O1334       O  0.05265280  0.69701813  0.14674678    -0.85400
C1335       C  0.07812126  0.68413343  0.13887266     1.02300
O1336       O  0.10361931  0.69892241  0.15784959    -0.78200
O1337       O  0.10422830  0.67228198  0.25675043    -0.78300
C1338       C  0.10403748  0.67081187  0.30436852     1.02200
Cr1339     Cr  0.07061279  0.73932049  0.29521412     1.93700
Cr1340     Cr  0.05453235  0.74616102  0.17432755     1.93200
Cr1341     Cr  0.11635161  0.71611999  0.23001427     1.39100
O1342       O  0.07977607  0.73322454  0.23350751    -1.23400
O1343       O  0.36251484  0.98830022  0.15905594    -0.85700
O1344       O  0.40486947  0.53119676  0.20243122    -0.82700
C1345       C  0.41938510  0.54821124  0.23995265     0.97800
O1346       O  0.43858991  0.53335822  0.27690486    -0.82800
O1347       O  0.39727908  0.51122242  0.33101603    -0.85400
C1348       C  0.37450646  0.49444872  0.34037968     1.02300
O1349       O  0.37093862  0.96718791  0.32801419    -0.78200
O1350       O  0.34373111  0.98025311  0.22938218    -0.78300
C1351       C  0.34033816  0.99116772  0.18344841     1.02300
O1352       O  0.41135379  0.93618511  0.16556195    -0.85700
O1353       O  0.45731013  0.98485899  0.20725691    -0.82700
C1354       C  0.47724085  0.97471031  0.24722147     0.97800
O1355       O  0.46899089  0.96764070  0.28948516    -0.82800
O1356       O  0.42623432  0.94551224  0.35548609    -0.85400
C1357       C  0.41396805  0.91644119  0.33974878     1.02300
O1358       O  0.40738575  0.91265582  0.29181011    -0.78200
O1359       O  0.36949921  0.92242801  0.19474569    -0.78300
C1360       C  0.38719572  0.91773574  0.16369631     1.02200
Cr1361     Cr  0.40973263  0.98494011  0.18846914     1.93700
Cr1362     Cr  0.43171797  0.48662291  0.30873665     1.93200
Cr1363     Cr  0.37525174  0.94688439  0.26071391     1.39100
O1364       O  0.40581952  0.97398320  0.25218916    -1.23400
C1365       C  0.09348908  0.88041900  0.32434528    -0.26600
C1366       C  0.11158677  0.89561986  0.29175685    -0.14700
C1367       C  0.10752146  0.88441173  0.24029966     0.35900
C1368       C  0.08725054  0.85670636  0.22375283    -0.26100
C1369       C  0.07084170  0.83958158  0.25737448    -0.15300
C1370       C  0.07338719  0.85240790  0.30780848     0.37000
N1371       N  0.05641459  0.83654029  0.34294846    -0.89600
H1372       H  0.09590644  0.88937725  0.36357737     0.18100
H1373       H  0.08557241  0.84743486  0.18486472     0.18100
N1374       N  0.12416600  0.90104879  0.20500754    -0.88600
H1375       H  0.04227488  0.85538228  0.35446891     0.35500
H1376       H  0.07271184  0.82801189  0.37570827     0.40600
H1377       H  0.11586864  0.92642326  0.19902259     0.40200
H1378       H  0.11902990  0.88928525  0.16891811     0.35100
C1379       C  0.15478216  0.64123355  0.32304473    -0.26600
C1380       C  0.12524972  0.64569014  0.33580253    -0.14700
C1381       C  0.11738731  0.62586031  0.37631644     0.35900
C1382       C  0.13720704  0.59865714  0.39790012    -0.26100
C1383       C  0.16430349  0.59105879  0.37909199    -0.15300
C1384       C  0.17416141  0.61386344  0.34379251     0.37000
N1385       N  0.20230598  0.60795200  0.32503919    -0.89600
H1386       H  0.16189944  0.65770485  0.29394377     0.18100
H1387       H  0.12921534  0.58083482  0.42430880     0.18100
N1388       N  0.08848272  0.63082480  0.39303339    -0.88600
H1389       H  0.20043471  0.58431823  0.30615756     0.35500
H1390       H  0.22119745  0.60645404  0.35686538     0.40600
H1391       H  0.06983387  0.62844772  0.36106812     0.40200
H1392       H  0.08833267  0.65587641  0.40701678     0.35100
C1393       C  0.29729157  0.53084589  0.33926255    -0.26600
C1394       C  0.28807087  0.50571403  0.37158756    -0.14700
C1395       C  0.31147944  0.99092427  0.40831660     0.35900
C1396       C  0.34299553  0.99429017  0.40531188    -0.26100
C1397       C  0.35083371  0.50967752  0.36468139    -0.15300
C1398       C  0.32906231  0.53316482  0.33564663     0.37000
N1399       N  0.33889159  0.55752891  0.30062649    -0.89600
H1400       H  0.27981609  0.54731357  0.31566583     0.18100
H1401       H  0.36055413  0.97799183  0.42965419     0.18100
N1402       N  0.30267878  0.96973106  0.44765109    -0.88600
H1403       H  0.31984028  0.57250832  0.28160314     0.35500
H1404       H  0.34706250  0.54405769  0.27221640     0.40600
H1405       H  0.28939899  0.98520056  0.46685865     0.40200
H1406       H  0.32279416  0.96196127  0.47443262     0.35100
C1407       C  0.36114598  0.89708505  0.34336605    -0.26600
C1408       C  0.39275533  0.89682649  0.36876038    -0.14700
C1409       C  0.40080873  0.87753566  0.41601585     0.35900
C1410       C  0.37705058  0.85767996  0.43362694    -0.26100
C1411       C  0.34516751  0.85842306  0.40665766    -0.15300
C1412       C  0.33745292  0.88133572  0.36248905     0.37000
N1413       N  0.30626396  0.88766280  0.33151535    -0.89600
H1414       H  0.35385249  0.90988036  0.30614332     0.18100
H1415       H  0.38368827  0.84124364  0.46769026     0.18100
N1416       N  0.43249327  0.87641334  0.44573297    -0.88600
H1417       H  0.30095143  0.91374503  0.33487467     0.35500
H1418       H  0.28793067  0.87363538  0.34098201     0.40600
H1419       H  0.44729636  0.89161311  0.42812954     0.40200
H1420       H  0.44043633  0.85096073  0.44584640     0.35100
C1421       C  0.21702188  0.75723324  0.41355407    -0.26600
C1422       C  0.22970403  0.78497502  0.38985076    -0.14700
C1423       C  0.20904289  0.80409164  0.34990810     0.35900
C1424       C  0.17723596  0.79587645  0.33596319    -0.26100
C1425       C  0.16521491  0.76736388  0.35770297    -0.15300
C1426       C  0.18528225  0.74754047  0.39682208     0.37000
N1427       N  0.17432967  0.71725029  0.41987902    -0.89600
H1428       H  0.23137449  0.74253989  0.44448399     0.18100
H1429       H  0.16241901  0.81020414  0.30436952     0.18100
N1430       N  0.22038720  0.83220298  0.32284489    -0.88600
H1431       H  0.18590862  0.69591817  0.40888258     0.35500
H1432       H  0.15023712  0.71343232  0.40620630     0.40600
H1433       H  0.20734606  0.85427722  0.32662032     0.40200
H1434       H  0.21586911  0.82625773  0.28373198     0.35100
C1435       C  0.39720807  0.59784409  0.27955177    -0.26600
C1436       C  0.41090682  0.58530073  0.23980328    -0.14700
C1437       C  0.40703277  0.60438032  0.19302798     0.35900
C1438       C  0.38746848  0.63359326  0.18510409    -0.26100
C1439       C  0.37129362  0.64450358  0.22278545    -0.15300
C1440       C  0.37705112  0.62705534  0.27134023     0.37000
N1441       N  0.36268470  0.63895460  0.31205707    -0.89600
H1442       H  0.40009953  0.58320926  0.31553727     0.15700
H1443       H  0.38383028  0.64717425  0.14812720     0.18100
N1444       N  0.42182061  0.59279187  0.15257677    -0.88600
H1445       H  0.37044990  0.62420515  0.34582096     0.35500
H1446       H  0.33846878  0.63466585  0.30090164     0.40600
H1447       H  0.44615895  0.59435268  0.16632580     0.40200
H1448       H  0.41635726  0.60928518  0.12018423     0.35100
C1449       C  0.39140737  0.85799427  0.13939216    -0.26600
C1450       C  0.37754160  0.89017553  0.12633900    -0.14700
C1451       C  0.34670026  0.89171805  0.09558338     0.35900
C1452       C  0.32832703  0.86175083  0.08624756    -0.26100
C1453       C  0.34050511  0.83049803  0.10811788    -0.15300
C1454       C  0.37300627  0.82809089  0.13120426     0.37000
N1455       N  0.38679898  0.79564202  0.15042289    -0.89600
H1456       H  0.41504482  0.85633527  0.16290260     0.18100
H1457       H  0.30370262  0.86370102  0.06726966     0.18100
N1458       N  0.33269600  0.92430732  0.07898262    -0.88600
H1459       H  0.39575606  0.79765379  0.19018727     0.35500
H1460       H  0.40562589  0.79095762  0.13254488     0.40600
H1461       H  0.31308718  0.92711858  0.09566890     0.40200
H1462       H  0.32456258  0.92310942  0.03899707     0.35100
C1463       C  0.17619331  0.74827113  0.09635618    -0.26600
C1464       C  0.20032288  0.76462626  0.13083898    -0.14700
C1465       C  0.19430335  0.79499297  0.15520438     0.35900
C1466       C  0.16294020  0.80373367  0.15424821    -0.26100
C1467       C  0.13864579  0.78216797  0.12897569    -0.15300
C1468       C  0.14501612  0.75807684  0.09335821     0.37000
N1469       N  0.11979891  0.73958339  0.06113721    -0.89600
H1470       H  0.18159589  0.72694878  0.07367822     0.18100
H1471       H  0.15780596  0.82354261  0.17973134     0.18100
N1472       N  0.21987506  0.81560627  0.18223856    -0.88600
H1473       H  0.12881434  0.72186306  0.03865239     0.35500
H1474       H  0.10667365  0.75749373  0.03537445     0.40600
H1475       H  0.23213680  0.80097005  0.21364369     0.40200
H1476       H  0.21127742  0.83768027  0.19674766     0.35100
C1477       C  0.11148030  0.62134726  0.05896449    -0.26600
C1478       C  0.13135263  0.60464511  0.10153532    -0.14700
C1479       C  0.12512022  0.61152888  0.15151599     0.35900
C1480       C  0.09662942  0.62650380  0.15542744    -0.26100
C1481       C  0.08173324  0.64946039  0.11693526    -0.15300
C1482       C  0.08829125  0.64558312  0.06675890     0.37000
N1483       N  0.07182577  0.66567335  0.02336464    -0.89600
H1484       H  0.11583791  0.61813509  0.02048042     0.18100
H1485       H  0.09173450  0.62841298  0.19366004     0.18100
N1486       N  0.14856129  0.60956486  0.19902008    -0.88600
H1487       H  0.08827537  0.68097878  0.00974699     0.35500
H1488       H  0.05579754  0.68232047  0.03485400     0.40600
H1489       H  0.17117260  0.60429690  0.19402902     0.40200
H1490       H  0.14183310  0.59145256  0.22437527     0.35100
C1491       C  0.26588067  0.51889806  0.08788696    -0.26600
C1492       C  0.24874726  0.53172876  0.12309607    -0.14700
C1493       C  0.26399564  0.53334485  0.17586215     0.35900
C1494       C  0.29159334  0.01864916  0.19406041    -0.26100
C1495       C  0.30963935  0.50346546  0.15908673    -0.15300
C1496       C  0.29664478  0.50567473  0.10573958     0.37000
N1497       N  0.31403845  0.49340032  0.06981588    -0.89600
H1498       H  0.25617348  0.52022954  0.04673849     0.18100
H1499       H  0.30026283  0.01686197  0.23530773     0.18100
N1500       N  0.25038445  0.55199072  0.21209104    -0.88600
H1501       H  0.31617674  0.51365864  0.04412559     0.35500
H1502       H  0.30037433  0.47392458  0.04964950     0.40600
H1503       H  0.26617512  0.57118858  0.22832871     0.40200
H1504       H  0.24513317  0.03376887  0.24153269     0.35100
C1505       C  0.87669872  0.87935660  0.25769665    -0.26600
C1506       C  0.87092472  0.89480862  0.20806912    -0.14700
C1507       C  0.88657364  0.88149398  0.17071837     0.35900
C1508       C  0.90526677  0.85165234  0.18232118    -0.26100
C1509       C  0.90914003  0.83459854  0.23051427    -0.15300
C1510       C  0.89622782  0.84989355  0.26948081     0.37000
N1511       N  0.90200815  0.83503798  0.32055032    -0.89600
H1512       H  0.86587572  0.89001571  0.28731796     0.18100
H1513       H  0.91508862  0.84013161  0.15216459     0.18100
N1514       N  0.88210118  0.89721656  0.11998043    -0.88600
H1515       H  0.88035071  0.82984945  0.33025504     0.35500
H1516       H  0.91334578  0.85363165  0.34610187     0.40600
H1517       H  0.85852510  0.89377320  0.10171921     0.40200
H1518       H  0.89558257  0.88469035  0.09745025     0.35100
C1519       C  0.86881450  0.57755490  0.10447497    -0.26600
C1520       C  0.83596726  0.58169027  0.08824760    -0.14700
C1521       C  0.82325272  0.61497404  0.07932372     0.35900
C1522       C  0.84301859  0.64336575  0.09267495    -0.26100
C1523       C  0.87463169  0.63874171  0.11875515    -0.15300
C1524       C  0.88826621  0.60586992  0.12131310     0.37000
N1525       N  0.92043341  0.60083253  0.14771989    -0.89600
H1526       H  0.87862089  0.55180271  0.11121905     0.18100
H1527       H  0.83243127  0.66881058  0.09066874     0.18100
N1528       N  0.79004688  0.62046682  0.06308959    -0.88600
H1529       H  0.92651023  0.57470036  0.14839710     0.35500
H1530       H  0.93462431  0.61379113  0.12618209     0.40600
H1531       H  0.77889648  0.60920417  0.09066587     0.40200
H1532       H  0.78236343  0.60765566  0.02829190     0.35100
C1533       C  0.67646535  0.51553688  0.08189293    -0.26600
C1534       C  0.70118416  0.51596483  0.12563401    -0.14700
C1535       C  0.69555411  0.52646572  0.17334116     0.35900
C1536       C  0.66488710  0.53187291  0.17820516    -0.26100
C1537       C  0.64005530  0.52260501  0.13833371    -0.15300
C1538       C  0.64531206  0.51879082  0.08813038     0.37000
N1539       N  0.61918362  0.51570976  0.04505137    -0.89600
H1540       H  0.68113327  0.50910166  0.04449804     0.18100
H1541       H  0.66041761  0.53638135  0.21600402     0.18100
N1542       N  0.72010023  0.52788702  0.21862395    -0.88600
H1543       H  0.62723238  0.51263089  0.01082254     0.35500
H1544       H  0.60681494  0.53904098  0.04121280     0.40600
H1545       H  0.73852647  0.04490056  0.20908245     0.40200
H1546       H  0.72951923  0.00426587  0.22693657     0.35100
C1547       C  0.62425032  0.88427527  0.06294445    -0.26600
C1548       C  0.62817711  0.85023123  0.08205697    -0.14700
C1549       C  0.60322298  0.83667748  0.10353736     0.35900
C1550       C  0.58391431  0.85956644  0.12394579    -0.26100
C1551       C  0.58507552  0.89549400  0.11497843    -0.15300
C1552       C  0.60280686  0.90687409  0.07830236     0.37000
N1553       N  0.60178162  0.94152940  0.05837512    -0.89600
H1554       H  0.63861489  0.89411649  0.03723274     0.18100
H1555       H  0.56842449  0.84933259  0.14772675     0.18100
N1556       N  0.59539538  0.80061635  0.10166289    -0.88600
H1557       H  0.62337315  0.95275288  0.07463917     0.35500
H1558       H  0.58382140  0.95596753  0.06811220     0.40600
H1559       H  0.61503680  0.78533594  0.11597352     0.40200
H1560       H  0.58772889  0.79438017  0.06277701     0.35100
C1561       C  0.77561905  0.79997478  0.13395186    -0.26600
C1562       C  0.74912824  0.77961051  0.11328711    -0.14700
C1563       C  0.75320782  0.74313102  0.11772288     0.35900
C1564       C  0.78353626  0.72920510  0.13280288    -0.26100
C1565       C  0.80973521  0.75066055  0.14605307    -0.15300
C1566       C  0.80597977  0.78646537  0.14534369     0.37000
N1567       N  0.83274381  0.80866277  0.16133499    -0.89600
H1568       H  0.77279552  0.82636183  0.14451105     0.18100
H1569       H  0.78641270  0.70145733  0.13777946     0.18100
N1570       N  0.72701956  0.72015514  0.11452486    -0.88600
H1571       H  0.82569937  0.83449471  0.16055285     0.35500
H1572       H  0.84681949  0.80668548  0.13398081     0.40600
H1573       H  0.72873183  0.70798518  0.15063013     0.40200
H1574       H  0.72905495  0.70090947  0.08816740     0.35100
C1575       C  0.61137805  0.63411960  0.23595863    -0.26600
C1576       C  0.61475737  0.64823106  0.28537679    -0.14700
C1577       C  0.59670621  0.63407838  0.31940961     0.35900
C1578       C  0.57794010  0.60471668  0.30497919    -0.26100
C1579       C  0.57626814  0.58885494  0.25710102    -0.15300
C1580       C  0.59169003  0.60542405  0.22085426     0.37000
N1581       N  0.58835348  0.59395753  0.16874697    -0.89600
H1582       H  0.62398511  0.64561207  0.20862517     0.18100
H1583       H  0.56637457  0.59243039  0.33309489     0.18100
N1584       N  0.59884666  0.64830667  0.36990417    -0.88600
H1585       H  0.57018139  0.57610479  0.15925849     0.35500
H1586       H  0.60952757  0.58243950  0.16549607     0.40600
H1587       H  0.62179737  0.64419381  0.39095244     0.40200
H1588       H  0.58391381  0.63520597  0.38995206     0.35100
C1589       C  0.61503559  0.82633293  0.37255720    -0.26600
C1590       C  0.64659515  0.83092095  0.39852102    -0.14700
C1591       C  0.65650249  0.86332749  0.41817930     0.35900
C1592       C  0.63565332  0.89141014  0.40585690    -0.26100
C1593       C  0.60715254  0.88792440  0.36940830    -0.15300
C1594       C  0.59552809  0.85482692  0.35593015     0.37000
N1595       N  0.56570395  0.85058016  0.32071002    -0.89600
H1596       H  0.60710539  0.80098639  0.35869390     0.18100
H1597       H  0.64359999  0.91698090  0.41779374     0.18100
N1598       N  0.68872572  0.86855075  0.44336539    -0.88600
H1599       H  0.56054871  0.82436554  0.31501931     0.35500
H1600       H  0.56766060  0.86089670  0.28470814     0.40600
H1601       H  0.69377868  0.85122000  0.47455354     0.40200
H1602       H  0.69175673  0.89333655  0.45858914     0.35100
C1603       C  0.79341456  0.78092602  0.33448516    -0.26600
C1604       C  0.78771384  0.76319410  0.37775789    -0.14700
C1605       C  0.81274227  0.75002758  0.41562052     0.35900
C1606       C  0.84280435  0.74905837  0.40441636    -0.26100
C1607       C  0.84752546  0.76160539  0.35659267    -0.15300
C1608       C  0.82328666  0.78038581  0.32331158     0.37000
N1609       N  0.82690981  0.79560825  0.27507069    -0.89600
H1610       H  0.77390636  0.79173707  0.30619535     0.18100
H1611       H  0.86152755  0.73506956  0.43013118     0.18100
N1612       N  0.80679828  0.73466868  0.46253202    -0.88600
H1613       H  0.81149493  0.78259724  0.24603732     0.35500
H1614       H  0.84952419  0.79211189  0.26864443     0.40600
H1615       H  0.79808456  0.75408096  0.48265836     0.40200
H1616       H  0.82785720  0.72631153  0.48643241     0.35100
C1617       C  0.88983182  0.65322809  0.41368931    -0.26600
C1618       C  0.90552953  0.63963533  0.37712188    -0.14700
C1619       C  0.90327941  0.60363546  0.36885049     0.35900
C1620       C  0.88164996  0.58403635  0.39021535    -0.26100
C1621       C  0.85889525  0.60024217  0.41256792    -0.15300
C1622       C  0.86666321  0.63373545  0.43179382     0.37000
N1623       N  0.85319087  0.64712145  0.47221053    -0.89600
H1624       H  0.89307857  0.68009877  0.42423134     0.18100
H1625       H  0.88027301  0.55650729  0.38385412     0.18100
N1626       N  0.92117433  0.58661600  0.33670494    -0.88600
H1627       H  0.87141774  0.64940553  0.50478835     0.35500
H1628       H  0.84543086  0.67220610  0.46158104     0.40600
H1629       H  0.93734243  0.60349734  0.32530678     0.40200
H1630       H  0.90547632  0.57891619  0.30317595     0.35100
C1631       C  0.72445547  0.50941075  0.40965545    -0.26600
C1632       C  0.73578973  0.53605441  0.38186566    -0.14700
C1633       C  0.71411620  0.55292083  0.34108773     0.35900
C1634       C  0.68379477  0.54013803  0.32546227    -0.26100
C1635       C  0.67471103  0.50992637  0.34741395    -0.15300
C1636       C  0.69467037  0.99451624  0.39266965     0.37000
N1637       N  0.68498110  0.96433630  0.41726871    -0.89600
H1638       H  0.73831942  0.49959653  0.44535993     0.18100
H1639       H  0.66741852  0.55358000  0.29511443     0.18100
N1640       N  0.72264683  0.58361033  0.31599315    -0.88600
H1641       H  0.70182197  0.95755465  0.45036896     0.35500
H1642       H  0.68447490  0.94416088  0.39137790     0.40600
H1643       H  0.70711777  0.60330870  0.32052743     0.40200
H1644       H  0.71946867  0.57927872  0.27643406     0.35100
C1645       C  0.82620945  0.58266450  0.90813520     0.29700
C1646       C  0.76963052  0.54920027  0.89554414     0.29700
C1647       C  0.81267652  0.56855246  0.85213277    -0.06500
C1648       C  0.82561037  0.54898720  0.94225922    -0.07300
C1649       C  0.79755089  0.60440775  0.91970964    -0.07200
C1650       C  0.78372661  0.55174735  0.84748477    -0.06500
C1651       C  0.79680302  0.53147687  0.93312632    -0.07300
C1652       C  0.77020287  0.58546523  0.91666589    -0.07200
C1653       C  0.78217045  0.52660864  0.81106124    -0.32600
N1654       N  0.80773147  0.52760489  0.78976137     0.13900
C1655       C  0.82667596  0.55290887  0.81428630    -0.32600
H1656       H  0.84934505  0.55872108  0.80577061     0.15900
C1657       C  0.80122066  0.50081823  0.96004939    -0.31500
N1658       N  0.82992740  0.50048053  0.49234516     0.12700
C1659       C  0.84541894  0.52972456  0.98130171    -0.31500
C1660       C  0.74609109  0.60657774  0.92369372    -0.31800
N1661       N  0.75574809  0.63956779  0.92537975     0.13200
H1662       H  0.72178091  0.59892487  0.92052047     0.15800
C1663       C  0.78671648  0.63889934  0.92074656    -0.31800
H1664       H  0.79899198  0.66168728  0.91169833     0.15800
H1665       H  0.86839517  0.53765792  0.00231583     0.15800
H1666       H  0.76455000  0.00629105  0.80491622     0.15900
H1667       H  0.78437724  0.97996557  0.95969781     0.15800
O1668       O  0.71109422  0.66459414  0.87280848    -0.85700
O1669       O  0.66304829  0.68002622  0.78784937    -0.82700
C1670       C  0.63660848  0.67781963  0.80150930     0.97800
O1671       O  0.62844946  0.70054352  0.82959672    -0.82800
O1672       O  0.63626757  0.74677766  0.91235685    -0.85400
C1673       C  0.65223151  0.73337221  0.95393067     1.02300
O1674       O  0.67359989  0.71257449  0.94941756    -0.78200
O1675       O  0.73590869  0.69589585  0.93621424    -0.78300
C1676       C  0.73322767  0.66763797  0.91173878     1.02300
O1677       O  0.74713787  0.72349539  0.85068245    -0.85700
O1678       O  0.70098472  0.74051335  0.77252615    -0.82700
C1679       C  0.67727492  0.75738155  0.75087817     0.97800
O1680       O  0.65138696  0.75321116  0.76518118    -0.82800
O1681       O  0.66558711  0.79240153  0.84744237    -0.85400
C1682       C  0.66884665  0.80364190  0.89194621     1.02300
O1683       O  0.68447403  0.78584911  0.92940419    -0.78200
O1684       O  0.73934804  0.76541309  0.90238979    -0.78300
C1685       C  0.75612939  0.75067949  0.87609570     1.02200
Cr1686     Cr  0.70394227  0.70365891  0.82321825     1.93700
Cr1687     Cr  0.64776739  0.74643306  0.84003630     1.93200
Cr1688     Cr  0.70687646  0.73895223  0.92606146     1.39100
O1689       O  0.68625686  0.72945514  0.86278175    -1.23400
C1690       C  0.66027528  0.83149784  0.58733472     0.29700
C1691       C  0.71683925  0.79760841  0.60032960     0.29700
C1692       C  0.67492203  0.81919355  0.64368253    -0.06500
C1693       C  0.66020836  0.79750261  0.55598380    -0.07300
C1694       C  0.68856208  0.85282978  0.57306097    -0.07200
C1695       C  0.70421494  0.80276656  0.64921624    -0.06500
C1696       C  0.68908459  0.78046921  0.56466048    -0.07300
C1697       C  0.71617267  0.83398424  0.57583163    -0.07200
C1698       C  0.70727771  0.78020161  0.69018031    -0.32600
N1699       N  0.68125520  0.78088593  0.71010709     0.13900
C1700       C  0.66157134  0.80504762  0.68337682    -0.32600
H1701       H  0.63844633  0.81019544  0.69041470     0.15900
C1702       C  0.68664403  0.75394105  0.53119788    -0.31500
N1703       N  0.65725689  0.75270218  0.00139031     0.12700
C1704       C  0.64090788  0.78006330  0.51496601    -0.31500
C1705       C  0.73974045  0.85635179  0.56844751    -0.31800
N1706       N  0.72991782  0.88906820  0.57014744     0.13200
H1707       H  0.76378173  0.84978520  0.56764759     0.15800
C1708       C  0.69907005  0.88745884  0.57456122    -0.31800
H1709       H  0.68636647  0.90951410  0.58419892     0.15800
H1710       H  0.61799949  0.78848479  0.49387594     0.15800
H1711       H  0.72604175  0.76149206  0.70120303     0.15900
H1712       H  0.70650458  0.73979071  0.52349357     0.15800
O1713       O  0.77326203  0.91340294  0.62622033    -0.85700
O1714       O  0.82307240  0.92655608  0.70876217    -0.82700
C1715       C  0.84942436  0.92516668  0.69480637     0.97800
O1716       O  0.85779729  0.94917529  0.66796245    -0.82800
O1717       O  0.84959343  0.99443883  0.58253227    -0.85400
C1718       C  0.83377308  0.98101809  0.54151489     1.02300
O1719       O  0.81163874  0.46129667  0.54616153    -0.78200
O1720       O  0.74958186  0.94561276  0.56138201    -0.78300
C1721       C  0.75190876  0.91705451  0.58603841     1.02300
O1722       O  0.73973805  0.97352840  0.64906817    -0.85700
O1723       O  0.78723286  0.98777857  0.72763420    -0.82700
C1724       C  0.81086619  0.00514196  0.74792425     0.97800
O1725       O  0.83593327  0.00291989  0.73054770    -0.82800
O1726       O  0.82173717  0.54150087  0.64437777    -0.85400
C1727       C  0.81667739  0.55241079  0.59873646     1.02300
O1728       O  0.80112544  0.53398848  0.56315009    -0.78200
O1729       O  0.74711127  0.51425406  0.59355089    -0.78300
C1730       C  0.73123000  0.50070513  0.62312351     1.02200
Cr1731     Cr  0.78248344  0.95203396  0.67526769     1.93700
Cr1732     Cr  0.83862314  0.99508158  0.65510462     1.93200
Cr1733     Cr  0.77900117  0.48767486  0.57008049     1.39100
O1734       O  0.79990676  0.97818685  0.63396949    -1.23400
O1735       O  0.62378944  0.98485865  0.84216229    -0.85700
O1736       O  0.58238973  0.53312966  0.79332407    -0.82700
C1737       C  0.56868434  0.55109485  0.75520118     0.97800
O1738       O  0.55022321  0.53678208  0.71750512    -0.82800
O1739       O  0.59179950  0.51640165  0.66410984    -0.85400
C1740       C  0.61602790  0.50236162  0.65617165     1.02300
O1741       O  0.62269981  0.97199874  0.67199096    -0.78200
O1742       O  0.64506229  0.98528197  0.77402903    -0.78300
C1743       C  0.64640831  0.99226028  0.82068692     1.02300
O1744       O  0.57459110  0.93405442  0.82677947    -0.85700
O1745       O  0.53055007  0.98502764  0.78586973    -0.82700
C1746       C  0.51113315  0.97506255  0.74601719     0.97800
O1747       O  0.52015380  0.96855671  0.70470523    -0.82800
O1748       O  0.56418139  0.94891749  0.64290008    -0.85400
C1749       C  0.57758768  0.91957993  0.65474301     1.02300
O1750       O  0.59049825  0.91308923  0.70116837    -0.78200
O1751       O  0.61912953  0.92270795  0.80376464    -0.78300
C1752       C  0.59920148  0.91611088  0.83118758     1.02200
Cr1753     Cr  0.57774476  0.98340390  0.80712561     1.93700
Cr1754     Cr  0.55789895  0.49064122  0.68642264     1.93200
Cr1755     Cr  0.61679602  0.94983526  0.73829136     1.39100
O1756       O  0.58355614  0.97407744  0.74417037    -1.23400
O1757       O  0.86183048  0.73204873  0.65175160    -0.85700
O1758       O  0.90337220  0.77950377  0.69551973    -0.82700
C1759       C  0.91732853  0.79720081  0.73271230     0.97800
O1760       O  0.93595120  0.78281609  0.77075539    -0.82800
O1761       O  0.89443831  0.76027389  0.82492342    -0.85400
C1762       C  0.87119525  0.74432710  0.83453487     1.02300
O1763       O  0.86665975  0.71322100  0.82218913    -0.78200
O1764       O  0.84097031  0.72662964  0.72056832    -0.78300
C1765       C  0.83907187  0.73569928  0.67405803     1.02300
O1766       O  0.91059940  0.68141902  0.66243491    -0.85700
O1767       O  0.95486473  0.73210585  0.70282937    -0.82700
C1768       C  0.97497911  0.72201337  0.74224016     0.97800
O1769       O  0.96698152  0.71485065  0.78455198    -0.82800
O1770       O  0.92488188  0.69383864  0.84929597    -0.85400
C1771       C  0.91359622  0.66386193  0.83744475     1.02300
O1772       O  0.90151356  0.65775344  0.79100122    -0.78200
O1773       O  0.86832204  0.66770613  0.69100406    -0.78300
C1774       C  0.88612048  0.66333978  0.65988464     1.02200
Cr1775     Cr  0.90794868  0.73031324  0.68341776     1.93700
Cr1776     Cr  0.92920719  0.73617448  0.80308983     1.93200
Cr1777     Cr  0.87194038  0.69300137  0.75572676     1.39100
O1778       O  0.90341663  0.71962430  0.74713790    -1.23400
C1779       C  0.16048533  0.58302546  0.59616083     0.29700
C1780       C  0.21607542  0.54797981  0.60709268     0.29700
C1781       C  0.16605695  0.55272966  0.63659564    -0.06500
C1782       C  0.16458076  0.56239674  0.54668535    -0.07300
C1783       C  0.19136776  0.60528636  0.60728338    -0.07200
C1784       C  0.19409637  0.53562383  0.64088431    -0.06500
C1785       C  0.19437563  0.54487242  0.55393299    -0.07300
C1786       C  0.21881751  0.58636061  0.61338952    -0.07200
C1787       C  0.19464657  0.50820485  0.67389381    -0.32600
N1788       N  0.16883179  0.50925343  0.69455453     0.13900
C1789       C  0.15017537  0.53535177  0.67036968    -0.32600
H1790       H  0.12757019  0.54198107  0.67843429     0.15900
C1791       C  0.18972349  0.51521560  0.52683285    -0.31500
N1792       N  0.16000748  0.51344966  0.99931419     0.12700
C1793       C  0.14397868  0.54118513  0.51217557    -0.31500
C1794       C  0.24255924  0.60733994  0.60463074    -0.31800
N1795       N  0.23187475  0.63973127  0.59454640     0.13200
H1796       H  0.26655486  0.59935577  0.60560871     0.15800
C1797       C  0.20026389  0.63897817  0.59461739    -0.31800
H1798       H  0.18480950  0.66114502  0.58664781     0.15800
H1799       H  0.11891610  0.54516098  0.49905028     0.15800
H1800       H  0.21307243  0.98976592  0.68345740     0.15900
H1801       H  0.20775750  0.99661349  0.02724525     0.15800
O1802       O  0.27766333  0.66516160  0.63845783    -0.85700
O1803       O  0.32379335  0.67703592  0.72436553    -0.82700
C1804       C  0.34970701  0.67478555  0.70929924     0.97800
O1805       O  0.35748206  0.69798343  0.68051469    -0.82800
O1806       O  0.34931097  0.74512462  0.59637587    -0.85400
C1807       C  0.33238705  0.73264590  0.55528913     1.02300
O1808       O  0.31110272  0.71203335  0.56150047    -0.78200
O1809       O  0.24931036  0.69693319  0.57813594    -0.78300
C1810       C  0.25389901  0.66817943  0.60251276     1.02300
O1811       O  0.23970039  0.72270024  0.66152799    -0.85700
O1812       O  0.28622143  0.73605407  0.74111881    -0.82700
C1813       C  0.31002863  0.75227248  0.76306464     0.97800
O1814       O  0.33563127  0.75021354  0.74666125    -0.82800
O1815       O  0.32329320  0.79118281  0.66273737    -0.85400
C1816       C  0.31926651  0.80264451  0.61756157     1.02300
O1817       O  0.30266924  0.78547780  0.58126028    -0.78200
O1818       O  0.24948237  0.76640119  0.61230246    -0.78300
C1819       C  0.23180245  0.75114216  0.63695853     1.02200
Cr1820     Cr  0.28317496  0.70171677  0.68905740     1.93700
Cr1821     Cr  0.33928004  0.74444428  0.67065013     1.93200
Cr1822     Cr  0.27953107  0.73919540  0.58646617     1.39100
O1823       O  0.30058587  0.72878031  0.64954271    -1.23400
C1824       C  0.31959960  0.83291058  0.91681178     0.29700
C1825       C  0.26403104  0.79721937  0.90606416     0.29700
C1826       C  0.30783077  0.81475184  0.86466253    -0.06500
C1827       C  0.32085030  0.80023567  0.95422251    -0.07300
C1828       C  0.29098984  0.85266340  0.92946706    -0.07200
C1829       C  0.27905757  0.79834267  0.85893308    -0.06500
C1830       C  0.29191484  0.78166873  0.94651812    -0.07300
C1831       C  0.26379797  0.83401446  0.92522843    -0.07200
C1832       C  0.27883881  0.77302420  0.82323784    -0.32600
N1833       N  0.30588915  0.77358294  0.80541530     0.13900
C1834       C  0.32436062  0.79848962  0.83149625    -0.32600
H1835       H  0.34849654  0.80336950  0.82878758     0.15900
C1836       C  0.29689093  0.75249545  0.97671816    -0.31500
N1837       N  0.32630096  0.75291077  0.50723570     0.12700
C1838       C  0.34129488  0.78198399  0.99390275    -0.31500
C1839       C  0.24014049  0.85590192  0.93232780    -0.31800
N1840       N  0.25102556  0.88861973  0.93654148     0.13200
H1841       H  0.21548574  0.84923012  0.92735010     0.15800
C1842       C  0.28238273  0.88682648  0.93569449    -0.31800
H1843       H  0.29698196  0.90867227  0.93177137     0.15800
H1844       H  0.36452418  0.79021153  0.01334421     0.15800
H1845       H  0.26054685  0.75373780  0.81336608     0.15900
H1846       H  0.27945416  0.73312901  0.97955945     0.15800
O1847       O  0.20891352  0.91327371  0.87841600    -0.85700
O1848       O  0.16008184  0.92532297  0.79515565    -0.82700
C1849       C  0.13457985  0.92309987  0.81144493     0.97800
O1850       O  0.12806850  0.94509142  0.84223906    -0.82800
O1851       O  0.13658151  0.00125205  0.91275929    -0.85400
C1852       C  0.15348869  0.99080778  0.95531087     1.02300
O1853       O  0.17378331  0.46856540  0.95269644    -0.78200
O1854       O  0.23423930  0.94703291  0.93822632    -0.78300
C1855       C  0.23029491  0.91739521  0.91800711     1.02300
O1856       O  0.24536762  0.96881528  0.84579246    -0.85700
O1857       O  0.19532574  0.98292127  0.76804319    -0.82700
C1858       C  0.16900087  0.99318927  0.74320079     0.97800
O1859       O  0.14489701  0.99045486  0.76307368    -0.82800
O1860       O  0.16049709  0.53941327  0.83691493    -0.85400
C1861       C  0.17234150  0.55481244  0.87774076     1.02300
O1862       O  0.18685410  0.53845401  0.91753802    -0.78200
O1863       O  0.23898655  0.51342109  0.89218335    -0.78300
C1864       C  0.25509425  0.49619036  0.86761304     1.02200
Cr1865     Cr  0.20119533  0.94939701  0.82423765     1.93700
Cr1866     Cr  0.14512969  0.99224239  0.84032471     1.93200
Cr1867     Cr  0.20666180  0.49062597  0.92232657     1.39100
O1868       O  0.18469928  0.97774429  0.86178121    -1.23400
O1869       O  0.10980227  0.76661141  0.82142434    -0.85700
O1870       O  0.04946011  0.78459965  0.77502306    -0.82700
C1871       C  0.05711386  0.80508246  0.74197046     0.97800
O1872       O  0.05731332  0.79459334  0.69710608    -0.82800
O1873       O  0.08920679  0.76011659  0.63841500    -0.85400
C1874       C  0.11670067  0.76987020  0.65972778     1.02300
O1875       O  0.12841554  0.76114362  0.70579569    -0.78200
O1876       O  0.13997779  0.72732034  0.80009189    -0.78300
C1877       C  0.13651799  0.75289734  0.82630710     1.02300
O1878       O  0.09197956  0.69496737  0.82584703    -0.85700
O1879       O  0.02989666  0.71412160  0.77690971    -0.82700
C1880       C  0.00841732  0.72347154  0.73910289     0.97800
O1881       O  0.01495081  0.73785374  0.69932147    -0.82800
O1882       O  0.05265268  0.69701986  0.64675507    -0.85400
C1883       C  0.07812131  0.68413640  0.63887915     1.02300
O1884       O  0.10361844  0.69892739  0.65785432    -0.78200
O1885       O  0.10422389  0.67228133  0.75675056    -0.78300
C1886       C  0.10403244  0.67080783  0.80436811     1.02200
Cr1887     Cr  0.07061256  0.73931937  0.79522513     1.93700
Cr1888     Cr  0.05453085  0.74616276  0.67433894     1.93200
Cr1889     Cr  0.11634975  0.71612016  0.73002183     1.39100
O1890       O  0.07977470  0.73322517  0.73351747    -1.23400
O1891       O  0.36252110  0.98829320  0.65905538    -0.85700
O1892       O  0.40485673  0.53119095  0.70244565    -0.82700
C1893       C  0.41937388  0.54820446  0.73996736     0.97800
O1894       O  0.43858134  0.53335027  0.77691560    -0.82800
O1895       O  0.39727545  0.51120927  0.83103000    -0.85400
C1896       C  0.37450219  0.49443560  0.84039042     1.02300
O1897       O  0.37094072  0.96718540  0.82801586    -0.78200
O1898       O  0.34373653  0.98025479  0.72938208    -0.78300
C1899       C  0.34034464  0.99116655  0.68344688     1.02300
O1900       O  0.41135795  0.93617433  0.66556981    -0.85700
O1901       O  0.45731506  0.98484812  0.70726107    -0.82700
C1902       C  0.47724557  0.97470065  0.74722604     0.97800
O1903       O  0.46899534  0.96763054  0.78948932    -0.82800
O1904       O  0.42623647  0.94550462  0.85548907    -0.85400
C1905       C  0.41396614  0.91643515  0.83975252     1.02300
O1906       O  0.40738240  0.91264898  0.79181392    -0.78200
O1907       O  0.36949944  0.92242477  0.69474730    -0.78300
C1908       C  0.38719744  0.91772860  0.66370128     1.02200
Cr1909     Cr  0.40973836  0.98493036  0.68847231     1.93700
Cr1910     Cr  0.43171185  0.48661236  0.80874454     1.93200
Cr1911     Cr  0.37525279  0.94688143  0.76071572     1.39100
O1912       O  0.40582373  0.97397597  0.75219259    -1.23400
C1913       C  0.09349290  0.88042080  0.82435633    -0.26600
C1914       C  0.11158440  0.89562535  0.79176160    -0.14700
C1915       C  0.10751075  0.88442220  0.74030078     0.35900
C1916       C  0.08723988  0.85671566  0.72375710    -0.26100
C1917       C  0.07083880  0.83958572  0.75738561    -0.15300
C1918       C  0.07339062  0.85240945  0.80782260     0.37000
N1919       N  0.05642449  0.83653855  0.84296905    -0.89600
H1920       H  0.09591589  0.88937605  0.86359104     0.18100
H1921       H  0.08555595  0.84744723  0.68486597     0.18100
N1922       N  0.12414684  0.90106548  0.70500215    -0.88600
H1923       H  0.04228642  0.85537883  0.85449771     0.35500
H1924       H  0.07272594  0.82800937  0.87572325     0.40600
H1925       H  0.11584787  0.92643982  0.69902786     0.40200
H1926       H  0.11900438  0.88930616  0.66890976     0.35100
C1927       C  0.15477818  0.64123222  0.82304570    -0.26600
C1928       C  0.12524318  0.64568296  0.83579700    -0.14700
C1929       C  0.11737587  0.62584304  0.87629664     0.35900
C1930       C  0.13719693  0.59864067  0.89787834    -0.26100
C1931       C  0.16429833  0.59105063  0.87907911    -0.15300
C1932       C  0.17415765  0.61386097  0.84378821     0.37000
N1933       N  0.20230413  0.60795488  0.82503796    -0.89600
H1934       H  0.16189737  0.65770913  0.79395275     0.18100
H1935       H  0.12920286  0.58081211  0.92427646     0.18100
N1936       N  0.08846485  0.63079589  0.89299836    -0.88600
H1937       H  0.20043474  0.58432345  0.80615010     0.35500
H1938       H  0.22119423  0.60645448  0.85686606     0.40600
H1939       H  0.06982178  0.62841946  0.86102397     0.40200
H1940       H  0.08830694  0.65584468  0.90698907     0.35100
C1941       C  0.29728782  0.53082816  0.83925672    -0.26600
C1942       C  0.28806544  0.50569471  0.87157685    -0.14700
C1943       C  0.31148743  0.99092132  0.90832334     0.35900
C1944       C  0.34300369  0.99429010  0.90532025    -0.26100
C1945       C  0.35083036  0.50966521  0.86469135    -0.15300
C1946       C  0.32905971  0.53315056  0.83565124     0.37000
N1947       N  0.33889114  0.55751505  0.80063414    -0.89600
H1948       H  0.27981330  0.54729505  0.81565678     0.18100
H1949       H  0.36056341  0.97799466  0.92966573     0.18100
N1950       N  0.30268814  0.96973053  0.94766144    -0.88600
H1951       H  0.31984032  0.57249344  0.78160654     0.35500
H1952       H  0.34706547  0.54404416  0.77222713     0.40600
H1953       H  0.28940530  0.98520041  0.96686280     0.40200
H1954       H  0.32280403  0.96196697  0.97444708     0.35100
C1955       C  0.36114249  0.89708568  0.84337331    -0.26600
C1956       C  0.39275226  0.89682434  0.86876616    -0.14700
C1957       C  0.40080503  0.87753459  0.91602259     0.35900
C1958       C  0.37704650  0.85767980  0.93363340    -0.26100
C1959       C  0.34516369  0.85842377  0.90666364    -0.15300
C1960       C  0.33744911  0.88133804  0.86249744     0.37000
N1961       N  0.30625982  0.88766794  0.83152701    -0.89600
H1962       H  0.35384912  0.90988105  0.80615054     0.18100
H1963       H  0.38368375  0.84124355  0.96769682     0.18100
N1964       N  0.43248916  0.87641272  0.94574132    -0.88600
H1965       H  0.30094797  0.91374971  0.83489277     0.35500
H1966       H  0.28792680  0.87363877  0.84099126     0.40600
H1967       H  0.44729267  0.89161212  0.92813831     0.40200
H1968       H  0.44043235  0.85096005  0.94585659     0.35100
C1969       C  0.21702502  0.75722299  0.91355551    -0.26600
C1970       C  0.22970320  0.78497117  0.88985998    -0.14700
C1971       C  0.20903948  0.80408947  0.84992292     0.35900
C1972       C  0.17723290  0.79587288  0.83598130    -0.26100
C1973       C  0.16521550  0.76735523  0.85771427    -0.15300
C1974       C  0.18528627  0.74752750  0.89682332     0.37000
N1975       N  0.17433834  0.71722993  0.91986876    -0.89600
H1976       H  0.23138038  0.74252557  0.94447726     0.18100
H1977       H  0.16241356  0.81020321  0.80439329     0.18100
N1978       N  0.22038101  0.83220310  0.82286062    -0.88600
H1979       H  0.18591868  0.69590288  0.90886042     0.35500
H1980       H  0.15024588  0.71341006  0.90619806     0.40600
H1981       H  0.20733908  0.85427604  0.82663963     0.40200
H1982       H  0.21586122  0.82625946  0.78374712     0.35100
C1983       C  0.39719260  0.59783736  0.77956277    -0.26600
C1984       C  0.41089666  0.58529467  0.73981982    -0.14700
C1985       C  0.40702897  0.60437619  0.69304722     0.35900
C1986       C  0.38746483  0.63358950  0.68511845    -0.26100
C1987       C  0.37128394  0.64449881  0.72279272    -0.15300
C1988       C  0.37703544  0.62704875  0.77134623     0.37000
N1989       N  0.36266261  0.63894616  0.81205681    -0.89600
H1990       H  0.40008032  0.58320191  0.81554721     0.15700
H1991       H  0.38383175  0.64717165  0.64814295     0.18100
N1992       N  0.42182391  0.59278961  0.65260341    -0.88600
H1993       H  0.37042421  0.62419610  0.84582120     0.35500
H1994       H  0.33844721  0.63465652  0.80089312     0.40600
H1995       H  0.44616145  0.59434976  0.66636242     0.40200
H1996       H  0.41636567  0.60928453  0.62021216     0.35100
C1997       C  0.39140566  0.85798688  0.63939658    -0.26600
C1998       C  0.37754187  0.89016906  0.62634372    -0.14700
C1999       C  0.34670091  0.89171409  0.59558716     0.35900
C2000       C  0.32832567  0.86174829  0.58625099    -0.26100
C2001       C  0.34050171  0.83049461  0.60812147    -0.15300
C2002       C  0.37300268  0.82808500  0.63120835     0.37000
N2003       N  0.38679323  0.79563526  0.65042760    -0.89600
H2004       H  0.41504295  0.85632618  0.66290731     0.18100
H2005       H  0.30370150  0.86370032  0.56727245     0.18100
N2006       N  0.33269950  0.92430465  0.57898507    -0.88600
H2007       H  0.39575016  0.79764688  0.69019205     0.35500
H2008       H  0.40562001  0.79094900  0.63255012     0.40600
H2009       H  0.31308974  0.92711829  0.59566834     0.40200
H2010       H  0.32456816  0.92310772  0.53899893     0.35100
C2011       C  0.17618647  0.74828292  0.59636057    -0.26600
C2012       C  0.20031804  0.76463184  0.63084784    -0.14700
C2013       C  0.19430198  0.79499616  0.65522221     0.35900
C2014       C  0.16293986  0.80373913  0.65427041    -0.26100
C2015       C  0.13864324  0.78217790  0.62899295    -0.15300
C2016       C  0.14501045  0.75809170  0.59336638     0.37000
N2017       N  0.11979089  0.73960477  0.56113988    -0.89600
H2018       H  0.18158647  0.72696265  0.57367634     0.18100
H2019       H  0.15780808  0.82354511  0.67976018     0.18100
N2020       N  0.21987606  0.81560463  0.68226034    -0.88600
H2021       H  0.12880394  0.72188759  0.53864749     0.35500
H2022       H  0.10666672  0.75751983  0.53538432     0.40600
H2023       H  0.23213550  0.80096532  0.71366387     0.40200
H2024       H  0.21128096  0.83767931  0.69677152     0.35100
C2025       C  0.11147797  0.62134627  0.55896876    -0.26600
C2026       C  0.13134917  0.60464117  0.60153792    -0.14700
C2027       C  0.12511855  0.61152542  0.65151967     0.35900
C2028       C  0.09663027  0.62650537  0.65543366    -0.26100
C2029       C  0.08173475  0.64946300  0.61694231    -0.15300
C2030       C  0.08829158  0.64558491  0.56676529     0.37000
N2031       N  0.07182792  0.66567746  0.52337229    -0.89600
H2032       H  0.11583479  0.61813413  0.52048418     0.18100
H2033       H  0.09173602  0.62841417  0.69366645     0.18100
N2034       N  0.14855994  0.60955723  0.69902305    -0.88600
H2035       H  0.08827908  0.68098147  0.50975620     0.35500
H2036       H  0.05580109  0.68232602  0.53486248     0.40600
H2037       H  0.17117125  0.60429035  0.69403081     0.40200
H2038       H  0.14183131  0.59144329  0.72437545     0.35100
C2039       C  0.26587146  0.51887996  0.58788684    -0.26600
C2040       C  0.24874394  0.53172604  0.62309343    -0.14700
C2041       C  0.26399431  0.53334686  0.67585772     0.35900
C2042       C  0.29160043  0.01865164  0.69405394    -0.26100
C2043       C  0.30963016  0.50344903  0.65908738    -0.15300
C2044       C  0.29663113  0.50564547  0.60574108     0.37000
N2045       N  0.31401521  0.49334630  0.56982029    -0.89600
H2046       H  0.25616273  0.52020457  0.54673872     0.18100
H2047       H  0.30026931  0.01686586  0.73530140     0.18100
N2048       N  0.25038579  0.55199969  0.71208281    -0.88600
H2049       H  0.31616862  0.51359848  0.54412869     0.35500
H2050       H  0.30033691  0.47387874  0.54965588     0.40600
H2051       H  0.26618014  0.57119421  0.72832072     0.40200
H2052       H  0.24513994  0.03377698  0.74152352     0.35100
C2053       C  0.87669825  0.87935394  0.75770044    -0.26600
C2054       C  0.87092676  0.89480646  0.70807330    -0.14700
C2055       C  0.88657647  0.88149098  0.67072414     0.35900
C2056       C  0.90526759  0.85164797  0.68232773    -0.26100
C2057       C  0.90913827  0.83459389  0.73052019    -0.15300
C2058       C  0.89622546  0.84988954  0.76948550     0.37000
N2059       N  0.90200308  0.83503321  0.82055446    -0.89600
H2060       H  0.86587444  0.89001344  0.78732052     0.18100
H2061       H  0.91509001  0.84012665  0.65217221     0.18100
N2062       N  0.88210662  0.89721401  0.61998680    -0.88600
H2063       H  0.88034472  0.82984629  0.83025684     0.35500
H2064       H  0.91334115  0.85362582  0.84610748     0.40600
H2065       H  0.85853070  0.89377234  0.60172341     0.40200
H2066       H  0.89558822  0.88468692  0.59745787     0.35100
C2067       C  0.86881407  0.57755002  0.60448315    -0.26600
C2068       C  0.83596736  0.58168786  0.58825060    -0.14700
C2069       C  0.82325545  0.61497249  0.57932126     0.35900
C2070       C  0.84302274  0.64336290  0.59267434    -0.26100
C2071       C  0.87463431  0.63873683  0.61876083    -0.15300
C2072       C  0.88826696  0.60586390  0.62132255     0.37000
N2073       N  0.92043295  0.60082453  0.64773423    -0.89600
H2074       H  0.87861866  0.55179723  0.61123052     0.18100
H2075       H  0.83243695  0.66880866  0.59066468     0.18100
N2076       N  0.79005037  0.62046777  0.56307981    -0.88600
H2077       H  0.92650840  0.57469190  0.64841279     0.35500
H2078       H  0.93462619  0.61378169  0.62619905     0.40600
H2079       H  0.77889668  0.60920756  0.59065371     0.40200
H2080       H  0.78236872  0.60765558  0.52828254     0.35100
C2081       C  0.67646330  0.51554159  0.58191191    -0.26600
C2082       C  0.70118319  0.51596495  0.62565163    -0.14700
C2083       C  0.69555448  0.52645942  0.67336282     0.35900
C2084       C  0.66488801  0.53186462  0.67823086    -0.26100
C2085       C  0.64005518  0.52260159  0.63835810    -0.15300
C2086       C  0.64531046  0.51879330  0.58815281     0.37000
N2087       N  0.61918108  0.51571549  0.54507469    -0.89600
H2088       H  0.68113002  0.50911092  0.54451453     0.18100
H2089       H  0.66041988  0.53636794  0.71603184     0.18100
N2090       N  0.72010133  0.52787571  0.71864497    -0.88600
H2091       H  0.62722880  0.51264115  0.51084398     0.35500
H2092       H  0.60681200  0.53904630  0.54124272     0.40600
H2093       H  0.73852618  0.04489179  0.70907886     0.40200
H2094       H  0.72951687  0.00425817  0.72693467     0.35100
C2095       C  0.62425268  0.88427082  0.56294632    -0.26600
C2096       C  0.62817871  0.85022681  0.58205914    -0.14700
C2097       C  0.60322383  0.83667354  0.60353801     0.35900
C2098       C  0.58391495  0.85956287  0.62394525    -0.26100
C2099       C  0.58507701  0.89549039  0.61497828    -0.15300
C2100       C  0.60280925  0.90687012  0.57830326     0.37000
N2101       N  0.60178416  0.94152520  0.55837500    -0.89600
H2102       H  0.63861777  0.89411164  0.53723519     0.18100
H2103       H  0.56842438  0.84932935  0.64772515     0.18100
N2104       N  0.59539578  0.80061255  0.60166310    -0.88600
H2105       H  0.62337635  0.95274803  0.57463622     0.35500
H2106       H  0.58382513  0.95596442  0.56811426     0.40600
H2107       H  0.61503670  0.78533194  0.61597631     0.40200
H2108       H  0.58773085  0.79437616  0.56277699     0.35100
C2109       C  0.77561892  0.79996894  0.63396009    -0.26600
C2110       C  0.74912865  0.77960459  0.61329285    -0.14700
C2111       C  0.75320875  0.74312513  0.61772378     0.35900
C2112       C  0.78353739  0.72919974  0.63280127    -0.26100
C2113       C  0.80973573  0.75065561  0.64605467    -0.15300
C2114       C  0.80597979  0.78646020  0.64535015     0.37000
N2115       N  0.83274357  0.80865770  0.66134330    -0.89600
H2116       H  0.77279477  0.82635567  0.64452054     0.18100
H2117       H  0.78641442  0.70145183  0.63777449     0.18100
N2118       N  0.72702101  0.72014839  0.61452421    -0.88600
H2119       H  0.82569884  0.83448948  0.66056263     0.35500
H2120       H  0.84681945  0.80668162  0.63398920     0.40600
H2121       H  0.72873383  0.70797708  0.65062843     0.40200
H2122       H  0.72905655  0.70090384  0.58816483     0.35100
C2123       C  0.61137431  0.63411502  0.73596515    -0.26600
C2124       C  0.61475667  0.64822602  0.78538412    -0.14700
C2125       C  0.59670766  0.63407347  0.81942020     0.35900
C2126       C  0.57794005  0.60471278  0.80499157    -0.26100
C2127       C  0.57626495  0.58885128  0.75711250    -0.15300
C2128       C  0.59168504  0.60542003  0.72086281     0.37000
N2129       N  0.58834453  0.59395474  0.66875407    -0.89600
H2130       H  0.62397955  0.64560770  0.70862933     0.18100
H2131       H  0.56637575  0.59242697  0.83310924     0.18100
N2132       N  0.59885167  0.64830107  0.86991604    -0.88600
H2133       H  0.57017377  0.57610014  0.65926895     0.35500
H2134       H  0.60951859  0.58243942  0.66549657     0.40600
H2135       H  0.62180305  0.64418712  0.89096080     0.40200
H2136       H  0.58391988  0.63520077  0.88996638     0.35100
C2137       C  0.61503327  0.82633173  0.87256194    -0.26600
C2138       C  0.64659349  0.83091866  0.89852295    -0.14700
C2139       C  0.65650296  0.86332483  0.91817987     0.35900
C2140       C  0.63565563  0.89140868  0.90585611    -0.26100
C2141       C  0.60715438  0.88792351  0.86940886    -0.15300
C2142       C  0.59552711  0.85482658  0.85593473     0.37000
N2143       N  0.56570146  0.85058092  0.82071831    -0.89600
H2144       H  0.60710142  0.80098525  0.85870073     0.18100
H2145       H  0.64360407  0.91697933  0.91779046     0.18100
N2146       N  0.68872662  0.86854624  0.94336496    -0.88600
H2147       H  0.56054408  0.82436646  0.81503100     0.35500
H2148       H  0.56765709  0.86089512  0.78471460     0.40600
H2149       H  0.69377920  0.85121488  0.97455234     0.40200
H2150       H  0.69175880  0.89333171  0.95858973     0.35100
C2151       C  0.79341151  0.78092374  0.83449680    -0.26600
C2152       C  0.78771102  0.76319045  0.87776847    -0.14700
C2153       C  0.81273937  0.75002214  0.91562940     0.35900
C2154       C  0.84280099  0.74905218  0.90442358    -0.26100
C2155       C  0.84752150  0.76159998  0.85659982    -0.15300
C2156       C  0.82328290  0.78038201  0.82332080     0.37000
N2157       N  0.82690519  0.79560424  0.77507922    -0.89600
H2158       H  0.77390326  0.79173624  0.80620862     0.18100
H2159       H  0.86152407  0.73506225  0.93013689     0.18100
N2160       N  0.80679556  0.73466226  0.96254044    -0.88600
H2161       H  0.81148943  0.78259375  0.74604624     0.35500
H2162       H  0.84951912  0.79210711  0.76865135     0.40600
H2163       H  0.79808247  0.75407419  0.98266821     0.40200
H2164       H  0.82785450  0.72630435  0.98643995     0.35100
C2165       C  0.88982703  0.65322421  0.91369564    -0.26600
C2166       C  0.90552488  0.63963139  0.87712840    -0.14700
C2167       C  0.90327422  0.60363170  0.86885601     0.35900
C2168       C  0.88164370  0.58403304  0.89021861    -0.26100
C2169       C  0.85888903  0.60023938  0.91257047    -0.15300
C2170       C  0.86665777  0.63373183  0.93179864     0.37000
N2171       N  0.85318569  0.64711696  0.97221614    -0.89600
H2172       H  0.89307435  0.68009463  0.92423878     0.18100
H2173       H  0.88026590  0.55650415  0.88385587     0.18100
N2174       N  0.92116952  0.58661210  0.83671119    -0.88600
H2175       H  0.87141286  0.64940089  0.00479350     0.35500
H2176       H  0.84542527  0.67220154  0.96158736     0.40600
H2177       H  0.93733793  0.60349332  0.82531357     0.40200
H2178       H  0.90547184  0.57891228  0.80318189     0.35100
C2179       C  0.72445177  0.50940471  0.90966503    -0.26600
C2180       C  0.73578437  0.53604962  0.88187492    -0.14700
C2181       C  0.71410879  0.55291692  0.84110057     0.35900
C2182       C  0.68378637  0.54013538  0.82548055    -0.26100
C2183       C  0.67470386  0.50992283  0.84743167    -0.15300
C2184       C  0.69467400  0.99451317  0.89266507     0.37000
N2185       N  0.68498579  0.96433195  0.91726253    -0.89600
H2186       H  0.73831780  0.49958877  0.94536661     0.18100
H2187       H  0.66740855  0.55357836  0.79513584     0.18100
N2188       N  0.72263836  0.58360592  0.81600363    -0.88600
H2189       H  0.70182709  0.95754988  0.95036203     0.35500
H2190       H  0.68447982  0.94415729  0.89137047     0.40600
H2191       H  0.70711069  0.60330494  0.82054117     0.40200
H2192       H  0.71945681  0.57927404  0.77644409     0.35100
loop_ 
_geom_bond_atom_site_label_1 
_geom_bond_atom_site_label_2 
_geom_bond_distance 
_geom_bond_site_symmetry_2 
_ccdc_geom_bond_type 
C1            C3   1.581       .  S
C1            C5   1.591       .  S
C1            C4   1.575       .  S
C1          C525   1.556       .  S
C2            C6   1.525       .  S
C2            C8   1.520       .  S
C2            C7   1.529       .  S
C2          C536   1.528       .  S
C3           C11   1.422       .  A
C3            C6   1.398       .  A
C4           C15   1.401       .  A
C4            C7   1.399       .  A
C5           C19   1.421       .  A
C5            C8   1.384       .  A
C6            C9   1.373       .  A
C7           C13   1.366       .  A
C8           C16   1.377       .  A
C9           N10   1.348       .  A
C9         H1118   1.081       .  S
N10          C11   1.361       .  A
N10        C1176   1.455       .  S
C11          H12   1.078       .  S
C13         N562   1.355   1_545  A
C13        H1119   1.077   1_545  S
N14         C561   1.355   1_565  A
N14         C563   1.374   1_565  A
N14        C1170   1.452   1_556  S
C15         N562   1.374   1_545  A
C15          H21   1.082       .  S
C16          N17   1.343       .  A
C16          H18   1.083       .  S
N17          C19   1.378       .  A
N17          C32   1.455       .  S
C19          H20   1.079       .  S
H22        C1105   1.081       .  S
H23        C1109   1.077       .  S
O24         Cr42   1.967       .  S
O24          C32   1.259       .  A
O25         Cr42   2.045       .  S
O25          C26   1.277       .  A
C26          O27   1.260       .  A
C26         C480   1.494       .  S
O27         Cr43   1.963       .  S
O28         Cr43   2.075       .  S
O28          C29   1.273       .  A
C29          N59   1.449       .  S
C29          O30   1.257       .  A
O30         Cr44   1.964       .  S
O31         Cr44   2.077       .  S
O31          C32   1.275       .  A
O33         Cr42   2.018       .  S
O33          C41   1.274       .  A
O34         Cr42   1.926       .  S
O34          C35   1.249       .  A
C35          N55   1.437       .  S
C35          O36   1.270       .  A
O36         Cr43   2.032       .  S
O37         Cr43   1.936       .  S
O37          C38   1.242       .  A
C38          O39   1.271       .  A
C38         C494   1.474       .  S
O39         Cr44   2.079       .  S
O40         Cr44   1.942       .  S
O40          C41   1.254       .  A
C41         C508   1.445       .  S
Cr42         O45   1.752       .  S
Cr43         O45   1.777       .  S
Cr44         O45   1.767       .  S
C46          C48   1.559       .  S
C46          C50   1.588       .  S
C46          C49   1.566       .  S
C46         C452   1.551       .  S
C47          C51   1.524       .  S
C47          C53   1.538       .  S
C47          C52   1.524       .  S
C47         C466   1.537       .  S
C48          C56   1.406       .  A
C48          C51   1.403       .  A
C49          C60   1.405       .  A
C49          C52   1.392       .  A
C50          C64   1.415       .  A
C50          C53   1.394       .  A
C51          C54   1.364       .  A
C52          C58   1.358       .  A
C53          C61   1.383       .  A
C54          N55   1.345       .  A
C54          H67   1.082       .  S
N55          C56   1.355       .  A
C56          H57   1.080       .  S
C58         N607   1.353       .  A
C58          H68   1.081       .  S
N59         C606   1.353       .  A
N59         C608   1.372       .  A
C60         N607   1.372       .  A
C60          H66   1.082   1_554  S
C61          N62   1.344       .  A
C61          H63   1.081       .  S
N62          C64   1.372       .  A
N62          C77   1.453       .  S
C64          H65   1.082       .  S
O69         Cr87   1.981       .  S
O69          C77   1.261       .  A
O70         Cr87   2.048       .  S
O70          C71   1.277       .  A
C71          O72   1.259       .  A
C71         C410   1.496       .  S
O72         Cr88   1.962       .  S
O73         Cr88   2.075       .  S
O73          C74   1.274       .  A
C74        N1110   1.452   1_554  S
C74        O1171   1.259       .  A
O75         Cr89   1.967       .  S
O75        C1170   1.259       .  A
O76       Cr1185   2.056       .  S
O76          C77   1.269       .  A
O78         Cr87   2.017       .  S
O78        C1182   1.275       .  A
O79         Cr87   1.954       .  S
O79          C80   1.253       .  A
C80        N1106   1.455       .  S
C80          O81   1.273       .  A
O81         Cr88   2.052       .  S
O82       Cr1184   1.940   1_545  S
O82          C83   1.247       .  A
C83          O84   1.266       .  A
C83         C424   1.463       .  S
O84         Cr89   2.052   1_545  S
O85         Cr89   1.941   1_545  S
O85          C86   1.255       .  A
C86        O1174   1.276   1_545  A
C86         C438   1.451       .  S
Cr87         O90   1.759       .  S
Cr88       O1178   1.940       .  S
Cr88         O90   1.782       .  S
Cr89       O1172   2.051       .  S
Cr89       O1186   1.778       .  S
O90       Cr1185   1.777       .  S
O91        Cr109   2.019       .  S
O91          C99   1.264       .  A
O92       Cr1205   1.956   1_545  S
O92          C93   1.256       .  A
C93          O94   1.274       .  A
C93         C483   1.495       .  S
O94        Cr110   2.038   1_545  S
O95        Cr110   1.964   1_545  S
O95          C96   1.246       .  A
C96        O1193   1.261   1_545  A
C96         C441   1.455       .  S
O97        Cr111   2.003       .  S
O97        C1192   1.260       .  A
O98        Cr111   1.958       .  S
O98          C99   1.257       .  A
C99        C1635   1.461       .  S
O100       Cr109   1.987       .  S
O100        C108   1.262       .  A
O101       Cr109   2.010       .  S
O101        C102   1.268       .  A
C102        O103   1.265       .  A
C102        C258   1.479       .  S
O103      Cr1206   1.989       .  S
O104      Cr1206   2.068       .  S
O104        C105   1.281       .  A
C105        O106   1.259       .  A
C105        C455   1.503       .  S
O106       Cr111   1.964       .  S
O107       Cr111   1.995       .  S
O107        C108   1.264       .  A
C108        C497   1.469       .  S
Cr109      O1188   1.960       .  S
Cr109       O112   1.779       .  S
Cr110      O1199   1.990       .  S
Cr110      O1200   2.070       .  S
Cr110      O1208   1.783       .  S
Cr111       O112   1.761       .  S
O112      Cr1206   1.784       .  S
O113       Cr131   2.000       .  S
O113        C121   1.263       .  A
O114       Cr131   1.956       .  S
O114        C115   1.255       .  A
C115        O116   1.272       .  A
C115        C413   1.490       .  S
O116       Cr132   2.033       .  S
O117       Cr132   1.969       .  S
O117        C118   1.251       .  A
C118        O119   1.258       .  A
C118        C511   1.455       .  S
O119       Cr133   1.995       .  S
O120       Cr133   1.951       .  S
O120        C121   1.259       .  A
C121        C469   1.447       .  S
O122       Cr131   1.993       .  S
O122        C130   1.262       .  A
O123       Cr131   1.995       .  S
O123        C124   1.267       .  A
C124        O125   1.266       .  A
C124        C236   1.472   1_655  S
O125       Cr132   1.993       .  S
O126       Cr132   2.060       .  S
O126        C127   1.277       .  A
C127        O128   1.256       .  A
C127        C522   1.492       .  S
O128       Cr133   1.961       .  S
O129       Cr133   1.964       .  S
O129        C130   1.256       .  A
C130        C427   1.465       .  S
Cr131       O134   1.779       .  S
Cr132       O134   1.785       .  S
Cr133       O134   1.761       .  S
C135        C137   1.558       .  S
C135        C139   1.571       .  S
C135        C138   1.589       .  S
C135        C382   1.551       .  S
C136        C140   1.511       .  S
C136        C142   1.501       .  S
C136        C141   1.524       .  S
C136        C396   1.523       .  S
C137        C145   1.401       .  A
C137        C140   1.370       .  A
C138        C149   1.410       .  A
C138        C141   1.440       .  A
C139        C153   1.416       .  A
C139        C142   1.379       .  A
C140        C143   1.360       .  A
C141        C147   1.357       .  A
C142        C150   1.367       .  A
C143        N144   1.348       .  A
C143       H1252   1.083   1_545  S
N144        C145   1.361       .  A
N144       C1310   1.435   1_545  S
C145        H146   1.081       .  S
C147        N696   1.344   1_554  A
C147       H1801   1.082   1_545  S
N148        C695   1.344       .  A
N148        C697   1.369       .  A
N148       C1304   1.446   1_545  S
C149        N696   1.369   1_554  A
C149        H155   1.082   1_554  S
C150        N151   1.342       .  A
C150        H152   1.084       .  S
N151        C153   1.375       .  A
N151        C166   1.448       .  S
C153        H154   1.082       .  S
H156       C1239   1.083       .  S
H157       C1791   1.082       .  S
O158       Cr176   1.944       .  S
O158        C166   1.251       .  A
O159       Cr176   2.049       .  S
O159        C160   1.277       .  A
C160        O161   1.258       .  A
C160        C343   1.495       .  S
O161       Cr177   1.955       .  S
O162       Cr177   2.103       .  S
O162        C163   1.280       .  A
C163        N193   1.456       .  S
C163        O164   1.255       .  A
O164       Cr178   1.961       .  S
O165       Cr178   2.087       .  S
O165        C166   1.272       .  A
O167       Cr176   2.046       .  S
O167        C175   1.281       .  A
O168       Cr176   1.916       .  S
O168        C169   1.247       .  A
C169        N189   1.441       .  S
C169        O170   1.277       .  A
O170       Cr177   2.056       .  S
O171       Cr177   1.934       .  S
O171        C172   1.241       .  A
C172        O173   1.270       .  A
C172        C357   1.475       .  S
O173       Cr178   2.078       .  S
O174       Cr178   1.922       .  S
O174        C175   1.249       .  A
C175        C368   1.443       .  S
Cr176       O179   1.743       .  S
Cr177       O179   1.761       .  S
Cr178       O179   1.765       .  S
C180        C182   1.545       .  S
C180        C184   1.560       .  S
C180        C183   1.585       .  S
C180        C315   1.549       .  S
C181        C185   1.523       .  S
C181        C187   1.522       .  S
C181        C186   1.552       .  S
C181        C326   1.540       .  S
C182        C190   1.401       .  A
C182        C185   1.382       .  A
C183        C194   1.405       .  A
C183        C186   1.425       .  A
C184        C198   1.396       .  A
C184        C187   1.370       .  A
C185        C188   1.371       .  A
C186        C192   1.361       .  A
C187        C195   1.379       .  A
C188        N189   1.355       .  A
C188        H201   1.083       .  S
N189        C190   1.353       .  A
C190        H191   1.082       .  S
C192        N741   1.360       .  A
C192        H202   1.077       .  S
N193        C740   1.360   1_554  A
N193        C742   1.376   1_554  A
C194        N741   1.376       .  A
C194        H200   1.082       .  S
C195        N196   1.348       .  A
C195        H197   1.083       .  S
N196        C198   1.370       .  A
N196        C211   1.446       .  S
C198        H199   1.072       .  S
O203       Cr221   1.964       .  S
O203        C211   1.258       .  A
O204       Cr221   2.020       .  S
O204        C205   1.273       .  A
C205        O206   1.262       .  A
C205        C270   1.482       .  S
O206       Cr222   1.974       .  S
O207       Cr222   2.063       .  S
O207        C208   1.268       .  A
C208       N1244   1.445       .  S
C208       O1305   1.256       .  A
O209       Cr223   1.967       .  S
O209       C1304   1.256       .  A
O210      Cr1319   2.054       .  S
O210        C211   1.269       .  A
O212       Cr221   2.026       .  S
O212       C1316   1.273       .  A
O213       Cr221   1.929       .  S
O213        C214   1.254       .  A
C214       N1240   1.434       .  S
C214        O215   1.271       .  A
O215       Cr222   2.042       .  S
O216      Cr1318   1.940   1_545  S
O216        C217   1.254       .  A
C217        O218   1.267       .  A
C217        C287   1.449       .  S
O218       Cr223   2.037   1_545  S
O219       Cr223   1.955   1_545  S
O219        C220   1.252   1_545  A
C220       O1308   1.274       .  A
C220        C298   1.463   1_565  S
Cr221       O224   1.747       .  S
Cr222      O1312   1.942       .  S
Cr222       O224   1.783       .  S
Cr223      O1306   2.059       .  S
Cr223      O1320   1.760       .  S
O224      Cr1319   1.759       .  S
O225       Cr243   2.001       .  S
O225        C233   1.258       .  A
O226       Cr243   1.996       .  S
O226        C227   1.266       .  A
C227        O228   1.263       .  A
C227        C273   1.490       .  S
O228       Cr244   1.975       .  S
O229       Cr244   2.011       .  S
O229        C230   1.269       .  A
C230        O231   1.258       .  A
C230        C371   1.452       .  S
O231       Cr245   1.955       .  S
O232       Cr245   1.977       .  S
O232        C233   1.247       .  A
C233        C329   1.460       .  S
O234       Cr243   2.028       .  S
O234        C242   1.273       .  A
O235       Cr243   1.988       .  S
O235        C236   1.263       .  A
C236        O237   1.265       .  A
O237       Cr244   1.991       .  S
O238       Cr244   2.046       .  S
O238        C239   1.274       .  A
C239        O240   1.257       .  A
C239        C385   1.494       .  S
O240       Cr245   1.998       .  S
O241       Cr245   1.940       .  S
O241        C242   1.261       .  A
C242        C284   1.462       .  S
Cr243       O246   1.779       .  S
Cr244       O246   1.776       .  S
Cr245       O246   1.745       .  S
O247       Cr265   2.043       .  S
O247        C255   1.275       .  A
O248      Cr1361   1.950   1_545  S
O248        C249   1.255       .  A
C249        O250   1.272       .  A
C249        C340   1.484       .  S
O250       Cr266   2.026   1_545  S
O251       Cr266   1.980   1_545  S
O251        C252   1.247   1_545  A
C252       O1349   1.254       .  A
C252        C301   1.456   1_565  S
O253       Cr267   2.007       .  S
O253       C1348   1.255       .  A
O254       Cr267   1.935       .  S
O254        C255   1.257       .  A
C255       C1495   1.481       .  S
O256       Cr265   1.994       .  S
O256        C264   1.259       .  A
O257       Cr265   2.021       .  S
O257        C258   1.274       .  A
C258        O259   1.269       .  A
O259      Cr1362   1.985       .  S
O260      Cr1362   2.110       .  S
O260        C261   1.282       .  A
C261        O262   1.250       .  A
C261        C312   1.515       .  S
O262       Cr267   1.969       .  S
O263       Cr267   1.976       .  S
O263        C264   1.256       .  A
C264        C354   1.464       .  S
Cr265      O1344   1.947       .  S
Cr265       O268   1.772       .  S
Cr266      O1355   1.986       .  S
Cr266      O1356   2.110       .  S
Cr266      O1364   1.791       .  S
Cr267       O268   1.740       .  S
O268      Cr1362   1.791       .  S
C269        C270   1.405       .  A
C269        C274   1.408       .  A
C269        H276   1.084       .  S
C270        C271   1.411       .  A
C271        C272   1.403       .  A
C271        N278   1.439       .  S
C272        C273   1.408       .  A
C272        H277   1.083       .  S
C273        C274   1.414       .  A
C274        N275   1.432       .  S
N275        H279   1.046       .  S
N275        H280   1.046       .  S
N278        H281   1.046       .  S
N278        H282   1.046       .  S
C283        C284   1.406       .  A
C283        C288   1.387       .  A
C283        H290   1.085       .  S
C284        C285   1.406       .  A
C285        C286   1.398       .  A
C285        N292   1.432       .  S
C286        C287   1.406       .  A
C286        H291   1.081       .  S
C287        C288   1.404       .  A
C288        N289   1.434       .  S
N289        H293   1.045       .  S
N289        H294   1.045       .  S
N292        H295   1.046       .  S
N292        H296   1.045       .  S
C297        C298   1.397       .  A
C297        C302   1.407       .  A
C297        H304   1.078       .  S
C298       C1395   1.399   1_545  A
C299        C300   1.394       .  A
C299       C1394   1.399       .  A
C299        N306   1.427       .  S
C300       C1397   1.396       .  A
C300        H305   1.085       .  S
C301        C302   1.410       .  A
C301       C1396   1.396   1_545  A
C302        N303   1.436       .  S
N303        H307   1.045       .  S
N303        H308   1.044       .  S
N306        H309   1.043       .  S
N306        H310   1.044       .  S
C311        C312   1.396       .  A
C311        C316   1.376       .  A
C311        H318   1.080       .  S
C312        C313   1.424       .  A
C313        C314   1.436       .  A
C313        N320   1.435       .  S
C314        C315   1.419       .  A
C314        H319   1.082       .  S
C315        C316   1.435       .  A
C316        N317   1.447       .  S
N317        H321   1.046       .  S
N317        H322   1.034       .  S
N320        H323   1.045       .  S
N320        H324   1.045       .  S
C325        C326   1.404       .  A
C325        C330   1.409       .  A
C325        H332   1.073       .  S
C326        C327   1.431       .  A
C327        C328   1.390       .  A
C327        N334   1.434       .  S
C328        C329   1.386       .  A
C328        H333   1.086       .  S
C329        C330   1.419       .  A
C330        N331   1.438       .  S
N331        H335   1.046       .  S
N331        H336   1.044       .  S
N334        H337   1.045       .  S
N334        H338   1.041       .  S
C339        C340   1.408       .  A
C339        C344   1.418       .  A
C339        H346   1.083       .  S
C340        C341   1.408       .  A
C341        C342   1.404       .  A
C341        N348   1.438       .  S
C342        C343   1.408       .  A
C342        H347   1.084       .  S
C343        C344   1.414       .  A
C344        N345   1.437       .  S
N345        H349   1.046       .  S
N345        H350   1.045       .  S
N348        H351   1.045       .  S
N348        H352   1.046       .  S
C353        C354   1.392       .  A
C353        C358   1.397       .  A
C353        H360   1.085       .  S
C354        C355   1.411       .  A
C355        C356   1.406       .  A
C355        N362   1.425       .  S
C356        C357   1.392       .  A
C356        H361   1.084       .  S
C357        C358   1.420       .  A
C358        N359   1.433       .  S
N359        H363   1.046       .  S
N359        H364   1.046       .  S
N362        H365   1.043       .  S
N362        H366   1.045       .  S
C367        C368   1.395       .  A
C367        C372   1.394       .  A
C367        H374   1.084       .  S
C368        C369   1.403       .  A
C369        C370   1.401       .  A
C369        N376   1.436       .  S
C370        C371   1.406       .  A
C370        H375   1.084       .  S
C371        C372   1.406       .  A
C372        N373   1.436       .  S
N373        H377   1.045       .  S
N373        H378   1.045       .  S
N376        H379   1.046       .  S
N376        H380   1.045       .  S
C381        C382   1.413       .  A
C381        C386   1.427       .  A
C381        H388   1.083       .  S
C382        C383   1.434       .  A
C383        C384   1.393       .  A
C383        N390   1.442       .  S
C384        C385   1.392       .  A
C384        H389   1.080       .  S
C385        C386   1.425       .  A
C386        N387   1.435       .  S
N387        H391   1.044       .  S
N387        H392   1.045       .  S
N390        H393   1.040       .  S
N390        H394   1.045       .  S
C395        C396   1.407       .  A
C395        C400   1.414       .  A
C395        H402   1.082       .  S
C396        C397   1.415       .  A
C397       C1494   1.379       .  A
C397        N404   1.434       .  S
C398       C1493   1.383       .  A
C398       C1495   1.395       .  A
C398        H403   1.077       .  S
C399        C400   1.407       .  A
C399       C1494   1.395       .  A
C399       C1351   1.478   1_545  S
C400        N401   1.424       .  S
N401        H405   1.046       .  S
N401        H406   1.039   1_545  S
N404        H407   1.045       .  S
N404       H1504   1.045       .  S
H408       N1500   1.044       .  S
C409        C410   1.406       .  A
C409        C414   1.415       .  A
C409        H416   1.083       .  S
C410        C411   1.418       .  A
C411        C412   1.407       .  A
C411        N418   1.439       .  S
C412        C413   1.403       .  A
C412        H417   1.084       .  S
C413        C414   1.413       .  A
C414        N415   1.431       .  S
N415        H419   1.044       .  S
N415        H420   1.045       .  S
N418        H421   1.046       .  S
N418        H422   1.046       .  S
C423        C424   1.410       .  A
C423        C428   1.403       .  A
C423        H430   1.083       .  S
C424        C425   1.400       .  A
C425        C426   1.396       .  A
C425        N432   1.432       .  S
C426        C427   1.412       .  A
C426        H431   1.085       .  S
C427        C428   1.400       .  A
C428        N429   1.437       .  S
N429        H433   1.046       .  S
N429        H434   1.045       .  S
N432        H435   1.046       .  S
N432        H436   1.044       .  S
C437        C438   1.403       .  A
C437        C442   1.405       .  A
C437        H444   1.084       .  S
C438        C439   1.403       .  A
C439        C440   1.383       .  A
C439        N446   1.427       .  S
C440        C441   1.392       .  A
C440        H445   1.076       .  S
C441        C442   1.404       .  A
C442        N443   1.435       .  S
N443        H447   1.046       .  S
N443        H448   1.045       .  S
N446       H1545   1.046       .  S
N446       H1546   1.043       .  S
H449       N1542   1.046       .  S
H450       N1542   1.043       .  S
C451        C452   1.401       .  A
C451        C456   1.406       .  A
C451        H458   1.080       .  S
C452        C453   1.421       .  A
C453        C454   1.412       .  A
C453        N460   1.436       .  S
C454        C455   1.409       .  A
C454        H459   1.083       .  S
C455        C456   1.424       .  A
C456        N457   1.431       .  S
N457        H461   1.043       .  S
N457        H462   1.040       .  S
N460        H463   1.040       .  S
N460        H464   1.044       .  S
C465        C466   1.410       .  A
C465        C470   1.391       .  A
C465        H472   1.078       .  S
C466        C467   1.424       .  A
C467        C468   1.400       .  A
C467        N474   1.432       .  S
C468        C469   1.394       .  A
C468        H473   1.085       .  S
C469        C470   1.396       .  A
C470        N471   1.439       .  S
N471        H475   1.046       .  S
N471        H476   1.045       .  S
N474        H477   1.046       .  S
N474        H478   1.046       .  S
C479        C480   1.404       .  A
C479        C484   1.411       .  A
C479        H486   1.084       .  S
C480        C481   1.414       .  A
C481        C482   1.407       .  A
C481        N488   1.439       .  S
C482        C483   1.406       .  A
C482        H487   1.084       .  S
C483        C484   1.423       .  A
C484        N485   1.434       .  S
N485        H489   1.041       .  S
N485        H490   1.045       .  S
N488        H491   1.046       .  S
N488        H492   1.045       .  S
C493        C494   1.411       .  A
C493        C498   1.402       .  A
C493        H500   1.084       .  S
C494        C495   1.399       .  A
C495        C496   1.408       .  A
C495        N502   1.434       .  S
C496        C497   1.408       .  A
C496        H501   1.077       .  S
C497        C498   1.401       .  A
C498        N499   1.438       .  S
N499        H503   1.046       .  S
N499        H504   1.046       .  S
N502        H505   1.041       .  S
N502        H506   1.045       .  S
C507        C508   1.390       .  A
C507        C512   1.391       .  A
C507        H514   1.085       .  S
C508        C509   1.404       .  A
C509        C510   1.400       .  A
C509        N516   1.438       .  S
C510        C511   1.401       .  A
C510        H515   1.084       .  S
C511        C512   1.416       .  A
C512        N513   1.434       .  S
N513        H517   1.042       .  S
N513        H518   1.042       .  S
N516        H519   1.046       .  S
N516        H520   1.045       .  S
C521        C522   1.407       .  A
C521        C526   1.414       .  A
C521        H528   1.083       .  S
C522        C523   1.415       .  A
C523        C524   1.408       .  A
C523        N530   1.437       .  S
C524        C525   1.409       .  A
C524        H529   1.082       .  S
C525        C526   1.416       .  A
C526        N527   1.429       .  S
N527        H531   1.045       .  S
N527        H532   1.044       .  S
N530        H533   1.045       .  S
N530        H534   1.046       .  S
C535        C536   1.404       .  A
C535       C1636   1.406   1_545  A
C535        H542   1.071   1_545  S
C536        C537   1.423       .  A
C537        C538   1.388       .  A
C537        N544   1.436       .  S
C538        C539   1.390       .  A
C538        H543   1.081       .  S
C539       C1636   1.406   1_545  A
C539       C1195   1.462   1_545  S
C540       C1631   1.405       .  A
C540       C1635   1.406       .  A
C540        N541   1.432       .  S
N541        H545   1.046       .  S
N541        H546   1.045       .  S
N544        H547   1.045       .  S
N544        H548   1.042       .  S
C549        C551   1.581       .  S
C549        C553   1.591       .  S
C549        C552   1.575       .  S
C549       C1073   1.556       .  S
C550        C554   1.525       .  S
C550        C556   1.520       .  S
C550        C555   1.529       .  S
C550       C1084   1.528       .  S
C551        C559   1.422       .  A
C551        C554   1.398       .  A
C552        C563   1.401       .  A
C552        C555   1.399       .  A
C553        C567   1.421       .  A
C553        C556   1.384       .  A
C554        C557   1.373       .  A
C555        C561   1.366       .  A
C556        C564   1.377       .  A
C557        N558   1.348       .  A
C557       H1666   1.081       .  S
N558        C559   1.361       .  A
N558       C1724   1.455       .  S
C559        H560   1.078       .  S
C561       H1667   1.077   1_545  S
N562       C1718   1.452       .  S
C563        H569   1.082   1_556  S
C564        N565   1.343       .  A
C564        H566   1.083       .  S
N565        C567   1.378       .  A
N565        C580   1.455       .  S
C567        H568   1.079       .  S
H570       C1653   1.081       .  S
H571       C1657   1.077       .  S
O572       Cr590   1.967       .  S
O572        C580   1.259       .  A
O573       Cr590   2.045       .  S
O573        C574   1.277       .  A
C574        O575   1.260       .  A
C574       C1028   1.494       .  S
O575       Cr591   1.963       .  S
O576       Cr591   2.075       .  S
O576        C577   1.273       .  A
C577        N607   1.449   1_556  S
C577        O578   1.257       .  A
O578       Cr592   1.964       .  S
O579       Cr592   2.077       .  S
O579        C580   1.275       .  A
O581       Cr590   2.018       .  S
O581        C589   1.274       .  A
O582       Cr590   1.926       .  S
O582        C583   1.249       .  A
C583        N603   1.437       .  S
C583        O584   1.270       .  A
O584       Cr591   2.032       .  S
O585       Cr591   1.936       .  S
O585        C586   1.242       .  A
C586        O587   1.271       .  A
C586       C1042   1.474       .  S
O587       Cr592   2.079       .  S
O588       Cr592   1.942       .  S
O588        C589   1.254       .  A
C589       C1056   1.445       .  S
Cr590       O593   1.752       .  S
Cr591       O593   1.777       .  S
Cr592       O593   1.767       .  S
C594        C596   1.560       .  S
C594        C598   1.588       .  S
C594        C597   1.566       .  S
C594       C1000   1.551       .  S
C595        C599   1.524       .  S
C595        C601   1.538       .  S
C595        C600   1.524       .  S
C595       C1014   1.537       .  S
C596        C604   1.406       .  A
C596        C599   1.403       .  A
C597        C608   1.405       .  A
C597        C600   1.392       .  A
C598        C612   1.415       .  A
C598        C601   1.394       .  A
C599        C602   1.364       .  A
C600        C606   1.358       .  A
C601        C609   1.383       .  A
C602        N603   1.345       .  A
C602        H615   1.082       .  S
N603        C604   1.355       .  A
C604        H605   1.080       .  S
C606        H616   1.081       .  S
C608        H614   1.082       .  S
C609        N610   1.344       .  A
C609        H611   1.081       .  S
N610        C612   1.372       .  A
N610        C625   1.453       .  S
C612        H613   1.082       .  S
O617       Cr635   1.981       .  S
O617        C625   1.261       .  A
O618       Cr635   2.048       .  S
O618        C619   1.277       .  A
C619        O620   1.259       .  A
C619        C958   1.496       .  S
O620       Cr636   1.962       .  S
O621       Cr636   2.075       .  S
O621        C622   1.274       .  A
C622       N1658   1.452       .  S
C622       O1719   1.259       .  A
O623       Cr637   1.967       .  S
O623       C1718   1.259       .  A
O624      Cr1733   2.056       .  S
O624        C625   1.269       .  A
O626       Cr635   2.017       .  S
O626       C1730   1.275       .  A
O627       Cr635   1.954       .  S
O627        C628   1.253       .  A
C628       N1654   1.455       .  S
C628        O629   1.273       .  A
O629       Cr636   2.052       .  S
O630      Cr1732   1.940   1_545  S
O630        C631   1.247       .  A
C631        O632   1.266       .  A
C631        C972   1.463       .  S
O632       Cr637   2.052   1_545  S
O633       Cr637   1.941   1_545  S
O633        C634   1.255       .  A
C634       O1722   1.276   1_545  A
C634        C986   1.451       .  S
Cr635       O638   1.759       .  S
Cr636      O1726   1.940       .  S
Cr636       O638   1.782       .  S
Cr637      O1720   2.051       .  S
Cr637      O1734   1.778       .  S
O638      Cr1733   1.777       .  S
O639       Cr657   2.019       .  S
O639        C647   1.264       .  A
O640      Cr1753   1.956   1_545  S
O640        C641   1.256       .  A
C641        O642   1.274       .  A
C641       C1031   1.495       .  S
O642       Cr658   2.038   1_545  S
O643       Cr658   1.964   1_545  S
O643        C644   1.246       .  A
C644       O1741   1.261   1_545  A
C644        C989   1.455       .  S
O645       Cr659   2.003       .  S
O645       C1740   1.260       .  A
O646       Cr659   1.958       .  S
O646        C647   1.257       .  A
C647       C2183   1.461       .  S
O648       Cr657   1.987       .  S
O648        C656   1.262       .  A
O649       Cr657   2.010       .  S
O649        C650   1.268       .  A
C650        O651   1.265       .  A
C650        C806   1.479       .  S
O651      Cr1754   1.989       .  S
O652      Cr1754   2.068       .  S
O652        C653   1.281       .  A
C653        O654   1.259       .  A
C653       C1003   1.503       .  S
O654       Cr659   1.964       .  S
O655       Cr659   1.994       .  S
O655        C656   1.264       .  A
C656       C1045   1.469       .  S
Cr657      O1736   1.960       .  S
Cr657       O660   1.779       .  S
Cr658      O1747   1.990       .  S
Cr658      O1748   2.070       .  S
Cr658      O1756   1.783       .  S
Cr659       O660   1.761       .  S
O660      Cr1754   1.784       .  S
O661       Cr679   2.000       .  S
O661        C669   1.263       .  A
O662       Cr679   1.956       .  S
O662        C663   1.255       .  A
C663        O664   1.272       .  A
C663        C961   1.490       .  S
O664       Cr680   2.033       .  S
O665       Cr680   1.969       .  S
O665        C666   1.251       .  A
C666        O667   1.258       .  A
C666       C1059   1.455       .  S
O667       Cr681   1.995       .  S
O668       Cr681   1.951       .  S
O668        C669   1.259       .  A
C669       C1017   1.447       .  S
O670       Cr679   1.993       .  S
O670        C678   1.262       .  A
O671       Cr679   1.995       .  S
O671        C672   1.267       .  A
C672        O673   1.266       .  A
C672        C784   1.472   1_655  S
O673       Cr680   1.993       .  S
O674       Cr680   2.060       .  S
O674        C675   1.277       .  A
C675        O676   1.256       .  A
C675       C1070   1.492       .  S
O676       Cr681   1.961       .  S
O677       Cr681   1.964       .  S
O677        C678   1.256       .  A
C678        C975   1.465       .  S
Cr679       O682   1.779       .  S
Cr680       O682   1.785       .  S
Cr681       O682   1.761       .  S
C683        C685   1.558       .  S
C683        C687   1.571       .  S
C683        C686   1.589       .  S
C683        C930   1.551       .  S
C684        C688   1.511       .  S
C684        C690   1.501       .  S
C684        C689   1.524       .  S
C684        C944   1.523       .  S
C685        C693   1.401       .  A
C685        C688   1.370       .  A
C686        C697   1.410       .  A
C686        C689   1.440       .  A
C687        C701   1.416       .  A
C687        C690   1.379       .  A
C688        C691   1.360       .  A
C689        C695   1.357       .  A
C690        C698   1.367       .  A
C691        N692   1.348       .  A
C691       H1800   1.083   1_545  S
N692        C693   1.361       .  A
N692       C1858   1.435   1_545  S
C693        H694   1.081       .  S
C695       H1253   1.082   1_545  S
N696       C1852   1.446   1_545  S
C697        H703   1.082       .  S
C698        N699   1.342       .  A
C698        H700   1.084       .  S
N699        C701   1.375       .  A
N699        C714   1.448       .  S
C701        H702   1.082       .  S
H704       C1787   1.083       .  S
H705       C1243   1.082       .  S
O706       Cr724   1.944       .  S
O706        C714   1.251       .  A
O707       Cr724   2.049       .  S
O707        C708   1.277       .  A
C708        O709   1.258       .  A
C708        C891   1.495       .  S
O709       Cr725   1.955       .  S
O710       Cr725   2.103       .  S
O710        C711   1.280       .  A
C711        N741   1.456       .  S
C711        O712   1.255       .  A
O712       Cr726   1.961       .  S
O713       Cr726   2.087       .  S
O713        C714   1.272       .  A
O715       Cr724   2.046       .  S
O715        C723   1.281       .  A
O716       Cr724   1.916       .  S
O716        C717   1.247       .  A
C717        N737   1.441       .  S
C717        O718   1.277       .  A
O718       Cr725   2.056       .  S
O719       Cr725   1.934       .  S
O719        C720   1.241       .  A
C720        O721   1.270       .  A
C720        C905   1.475       .  S
O721       Cr726   2.078       .  S
O722       Cr726   1.922       .  S
O722        C723   1.249       .  A
C723        C916   1.443       .  S
Cr724       O727   1.743       .  S
Cr725       O727   1.761       .  S
Cr726       O727   1.765       .  S
C728        C730   1.545       .  S
C728        C732   1.560       .  S
C728        C731   1.585       .  S
C728        C863   1.549       .  S
C729        C733   1.523       .  S
C729        C735   1.522       .  S
C729        C734   1.552       .  S
C729        C874   1.540       .  S
C730        C738   1.401       .  A
C730        C733   1.382       .  A
C731        C742   1.405       .  A
C731        C734   1.425       .  A
C732        C746   1.396       .  A
C732        C735   1.370       .  A
C733        C736   1.372       .  A
C734        C740   1.361       .  A
C735        C743   1.379       .  A
C736        N737   1.355       .  A
C736        H749   1.083       .  S
N737        C738   1.353       .  A
C738        H739   1.082       .  S
C740        H750   1.077       .  S
C742        H748   1.082   1_556  S
C743        N744   1.348       .  A
C743        H745   1.083       .  S
N744        C746   1.370       .  A
N744        C759   1.446       .  S
C746        H747   1.072       .  S
O751       Cr769   1.964       .  S
O751        C759   1.258       .  A
O752       Cr769   2.020       .  S
O752        C753   1.273       .  A
C753        O754   1.262       .  A
C753        C818   1.482       .  S
O754       Cr770   1.974       .  S
O755       Cr770   2.063       .  S
O755        C756   1.268       .  A
C756       N1792   1.445       .  S
C756       O1853   1.256       .  A
O757       Cr771   1.967       .  S
O757       C1852   1.256       .  A
O758      Cr1867   2.054       .  S
O758        C759   1.269       .  A
O760       Cr769   2.026       .  S
O760       C1864   1.273       .  A
O761       Cr769   1.929       .  S
O761        C762   1.254       .  A
C762       N1788   1.434       .  S
C762        O763   1.271       .  A
O763       Cr770   2.042       .  S
O764      Cr1866   1.940   1_545  S
O764        C765   1.254       .  A
C765        O766   1.267       .  A
C765        C835   1.449       .  S
O766       Cr771   2.037   1_545  S
O767       Cr771   1.955   1_545  S
O767        C768   1.252   1_545  A
C768       O1856   1.274       .  A
C768        C846   1.463   1_565  S
Cr769       O772   1.747       .  S
Cr770      O1860   1.942       .  S
Cr770       O772   1.783       .  S
Cr771      O1854   2.059       .  S
Cr771      O1868   1.760       .  S
O772      Cr1867   1.759       .  S
O773       Cr791   2.001       .  S
O773        C781   1.258       .  A
O774       Cr791   1.996       .  S
O774        C775   1.266       .  A
C775        O776   1.263       .  A
C775        C821   1.491       .  S
O776       Cr792   1.975       .  S
O777       Cr792   2.011       .  S
O777        C778   1.269       .  A
C778        O779   1.258       .  A
C778        C919   1.452       .  S
O779       Cr793   1.955       .  S
O780       Cr793   1.977       .  S
O780        C781   1.247       .  A
C781        C877   1.460       .  S
O782       Cr791   2.027       .  S
O782        C790   1.273       .  A
O783       Cr791   1.988       .  S
O783        C784   1.263       .  A
C784        O785   1.265       .  A
O785       Cr792   1.991       .  S
O786       Cr792   2.046       .  S
O786        C787   1.274       .  A
C787        O788   1.257       .  A
C787        C933   1.494       .  S
O788       Cr793   1.998       .  S
O789       Cr793   1.940       .  S
O789        C790   1.261       .  A
C790        C832   1.462       .  S
Cr791       O794   1.779       .  S
Cr792       O794   1.776       .  S
Cr793       O794   1.745       .  S
O795       Cr813   2.043       .  S
O795        C803   1.275       .  A
O796      Cr1909   1.950   1_545  S
O796        C797   1.255       .  A
C797        O798   1.272       .  A
C797        C888   1.484       .  S
O798       Cr814   2.026   1_545  S
O799       Cr814   1.980   1_545  S
O799        C800   1.247   1_545  A
C800       O1897   1.254       .  A
C800        C849   1.456   1_565  S
O801       Cr815   2.007       .  S
O801       C1896   1.255       .  A
O802       Cr815   1.935       .  S
O802        C803   1.257       .  A
C803       C2043   1.481       .  S
O804       Cr813   1.994       .  S
O804        C812   1.259       .  A
O805       Cr813   2.021       .  S
O805        C806   1.274       .  A
C806        O807   1.269       .  A
O807      Cr1910   1.985       .  S
O808      Cr1910   2.110       .  S
O808        C809   1.282       .  A
C809        O810   1.250       .  A
C809        C860   1.515       .  S
O810       Cr815   1.969       .  S
O811       Cr815   1.976       .  S
O811        C812   1.256       .  A
C812        C902   1.464       .  S
Cr813      O1892   1.947       .  S
Cr813       O816   1.772       .  S
Cr814      O1903   1.986       .  S
Cr814      O1904   2.110       .  S
Cr814      O1912   1.791       .  S
Cr815       O816   1.740       .  S
O816      Cr1910   1.791       .  S
C817        C818   1.405       .  A
C817        C822   1.408       .  A
C817        H824   1.084       .  S
C818        C819   1.411       .  A
C819        C820   1.403       .  A
C819        N826   1.439       .  S
C820        C821   1.408       .  A
C820        H825   1.083       .  S
C821        C822   1.414       .  A
C822        N823   1.432       .  S
N823        H827   1.046       .  S
N823        H828   1.046       .  S
N826        H829   1.046       .  S
N826        H830   1.046       .  S
C831        C832   1.406       .  A
C831        C836   1.387       .  A
C831        H838   1.085       .  S
C832        C833   1.406       .  A
C833        C834   1.398       .  A
C833        N840   1.432       .  S
C834        C835   1.406       .  A
C834        H839   1.081       .  S
C835        C836   1.404       .  A
C836        N837   1.434       .  S
N837        H841   1.045       .  S
N837        H842   1.045       .  S
N840        H843   1.046       .  S
N840        H844   1.045       .  S
C845        C846   1.397       .  A
C845        C850   1.407       .  A
C845        H852   1.078       .  S
C846       C1943   1.399   1_545  A
C847       C1942   1.399       .  A
C847        C848   1.394       .  A
C847        N854   1.427       .  S
C848       C1945   1.396       .  A
C848        H853   1.085       .  S
C849       C1944   1.396   1_545  A
C849        C850   1.410       .  A
C850        N851   1.436       .  S
N851        H855   1.045       .  S
N851        H856   1.044       .  S
N854        H857   1.043       .  S
N854        H858   1.043       .  S
C859        C860   1.396       .  A
C859        C864   1.376       .  A
C859        H866   1.080       .  S
C860        C861   1.424       .  A
C861        C862   1.436       .  A
C861        N868   1.435       .  S
C862        C863   1.419       .  A
C862        H867   1.082       .  S
C863        C864   1.435       .  A
C864        N865   1.447       .  S
N865        H869   1.046       .  S
N865        H870   1.034       .  S
N868        H871   1.045       .  S
N868        H872   1.045       .  S
C873        C874   1.404       .  A
C873        C878   1.409       .  A
C873        H880   1.073       .  S
C874        C875   1.431       .  A
C875        C876   1.390       .  A
C875        N882   1.434       .  S
C876        C877   1.386       .  A
C876        H881   1.086       .  S
C877        C878   1.419       .  A
C878        N879   1.438       .  S
N879        H883   1.046       .  S
N879        H884   1.044       .  S
N882        H885   1.045       .  S
N882        H886   1.041       .  S
C887        C888   1.408       .  A
C887        C892   1.418       .  A
C887        H894   1.083       .  S
C888        C889   1.408       .  A
C889        C890   1.404       .  A
C889        N896   1.438       .  S
C890        C891   1.408       .  A
C890        H895   1.084       .  S
C891        C892   1.414       .  A
C892        N893   1.437       .  S
N893        H897   1.046       .  S
N893        H898   1.045       .  S
N896        H899   1.045       .  S
N896        H900   1.046       .  S
C901        C902   1.392       .  A
C901        C906   1.397       .  A
C901        H908   1.085       .  S
C902        C903   1.411       .  A
C903        C904   1.406       .  A
C903        N910   1.425       .  S
C904        C905   1.392       .  A
C904        H909   1.084       .  S
C905        C906   1.420       .  A
C906        N907   1.433       .  S
N907        H911   1.046       .  S
N907        H912   1.046       .  S
N910        H913   1.043       .  S
N910        H914   1.045       .  S
C915        C916   1.395       .  A
C915        C920   1.394       .  A
C915        H922   1.084       .  S
C916        C917   1.403       .  A
C917        C918   1.401       .  A
C917        N924   1.436       .  S
C918        C919   1.406       .  A
C918        H923   1.084       .  S
C919        C920   1.406       .  A
C920        N921   1.436       .  S
N921        H925   1.045       .  S
N921        H926   1.045       .  S
N924        H927   1.046       .  S
N924        H928   1.045       .  S
C929        C930   1.413       .  A
C929        C934   1.427       .  A
C929        H936   1.083       .  S
C930        C931   1.434       .  A
C931        C932   1.393       .  A
C931        N938   1.442       .  S
C932        C933   1.392       .  A
C932        H937   1.080       .  S
C933        C934   1.425       .  A
C934        N935   1.435       .  S
N935        H939   1.044       .  S
N935        H940   1.045       .  S
N938        H941   1.040       .  S
N938        H942   1.045       .  S
C943        C944   1.407       .  A
C943        C948   1.414       .  A
C943        H950   1.082       .  S
C944        C945   1.415       .  A
C945       C2042   1.379       .  A
C945        N952   1.434       .  S
C946       C2041   1.383       .  A
C946       C2043   1.395       .  A
C946        H951   1.077       .  S
C947       C2042   1.395       .  A
C947        C948   1.407       .  A
C947       C1899   1.478   1_545  S
C948        N949   1.424       .  S
N949        H953   1.046       .  S
N949        H954   1.039   1_545  S
N952        H955   1.045       .  S
N952       H2052   1.045       .  S
H956       N2048   1.044       .  S
C957        C958   1.406       .  A
C957        C962   1.415       .  A
C957        H964   1.083       .  S
C958        C959   1.418       .  A
C959        C960   1.407       .  A
C959        N966   1.439       .  S
C960        C961   1.403       .  A
C960        H965   1.084       .  S
C961        C962   1.413       .  A
C962        N963   1.431       .  S
N963        H967   1.044       .  S
N963        H968   1.045       .  S
N966        H969   1.046       .  S
N966        H970   1.046       .  S
C971        C972   1.410       .  A
C971        C976   1.403       .  A
C971        H978   1.083       .  S
C972        C973   1.400       .  A
C973        C974   1.396       .  A
C973        N980   1.432       .  S
C974        C975   1.412       .  A
C974        H979   1.085       .  S
C975        C976   1.400       .  A
C976        N977   1.437       .  S
N977        H981   1.046       .  S
N977        H982   1.045       .  S
N980        H983   1.046       .  S
N980        H984   1.044       .  S
C985        C986   1.403       .  A
C985        C990   1.405       .  A
C985        H992   1.084       .  S
C986        C987   1.403       .  A
C987        C988   1.383       .  A
C987        N994   1.427       .  S
C988        C989   1.392       .  A
C988        H993   1.076       .  S
C989        C990   1.404       .  A
C990        N991   1.435       .  S
N991        H995   1.046       .  S
N991        H996   1.045       .  S
N994       H2093   1.046       .  S
N994       H2094   1.043       .  S
H997       N2090   1.046       .  S
H998       N2090   1.043       .  S
C999       C1000   1.401       .  A
C999       C1004   1.406       .  A
C999       H1006   1.080       .  S
C1000      C1001   1.421       .  A
C1001      C1002   1.412       .  A
C1001      N1008   1.436       .  S
C1002      C1003   1.409       .  A
C1002      H1007   1.083       .  S
C1003      C1004   1.424       .  A
C1004      N1005   1.431       .  S
N1005      H1009   1.043       .  S
N1005      H1010   1.040       .  S
N1008      H1011   1.040       .  S
N1008      H1012   1.044       .  S
C1013      C1014   1.410       .  A
C1013      C1018   1.391       .  A
C1013      H1020   1.078       .  S
C1014      C1015   1.424       .  A
C1015      C1016   1.400       .  A
C1015      N1022   1.432       .  S
C1016      C1017   1.394       .  A
C1016      H1021   1.085       .  S
C1017      C1018   1.396       .  A
C1018      N1019   1.439       .  S
N1019      H1023   1.046       .  S
N1019      H1024   1.045       .  S
N1022      H1025   1.046       .  S
N1022      H1026   1.046       .  S
C1027      C1028   1.404       .  A
C1027      C1032   1.411       .  A
C1027      H1034   1.084       .  S
C1028      C1029   1.414       .  A
C1029      C1030   1.407       .  A
C1029      N1036   1.439       .  S
C1030      C1031   1.406       .  A
C1030      H1035   1.084       .  S
C1031      C1032   1.423       .  A
C1032      N1033   1.434       .  S
N1033      H1037   1.041       .  S
N1033      H1038   1.045       .  S
N1036      H1039   1.046       .  S
N1036      H1040   1.045       .  S
C1041      C1042   1.411       .  A
C1041      C1046   1.402       .  A
C1041      H1048   1.084       .  S
C1042      C1043   1.399       .  A
C1043      C1044   1.408       .  A
C1043      N1050   1.434       .  S
C1044      C1045   1.408       .  A
C1044      H1049   1.077       .  S
C1045      C1046   1.401       .  A
C1046      N1047   1.438       .  S
N1047      H1051   1.046       .  S
N1047      H1052   1.046       .  S
N1050      H1053   1.041       .  S
N1050      H1054   1.045       .  S
C1055      C1056   1.390       .  A
C1055      C1060   1.391       .  A
C1055      H1062   1.085       .  S
C1056      C1057   1.404       .  A
C1057      C1058   1.400       .  A
C1057      N1064   1.438       .  S
C1058      C1059   1.401       .  A
C1058      H1063   1.084       .  S
C1059      C1060   1.416       .  A
C1060      N1061   1.434       .  S
N1061      H1065   1.042       .  S
N1061      H1066   1.042       .  S
N1064      H1067   1.046       .  S
N1064      H1068   1.045       .  S
C1069      C1070   1.407       .  A
C1069      C1074   1.414       .  A
C1069      H1076   1.083       .  S
C1070      C1071   1.415       .  A
C1071      C1072   1.408       .  A
C1071      N1078   1.437       .  S
C1072      C1073   1.409       .  A
C1072      H1077   1.082       .  S
C1073      C1074   1.416       .  A
C1074      N1075   1.429       .  S
N1075      H1079   1.045   1_556  S
N1075      H1080   1.044       .  S
N1078      H1081   1.045       .  S
N1078      H1082   1.046       .  S
C1083      C1084   1.404       .  A
C1083      C2184   1.406   1_545  A
C1083      H1090   1.071   1_545  S
C1084      C1085   1.423       .  A
C1085      C1086   1.388       .  A
C1085      N1092   1.436       .  S
C1086      C1087   1.390       .  A
C1086      H1091   1.081       .  S
C1087      C2184   1.406   1_545  A
C1087      C1743   1.462   1_545  S
C1088      C2179   1.405       .  A
C1088      C2183   1.406       .  A
C1088      N1089   1.432       .  S
N1089      H1093   1.046       .  S
N1089      H1094   1.045       .  S
N1092      H1095   1.045       .  S
N1092      H1096   1.042       .  S
C1097      C1099   1.580       .  S
C1097      C1101   1.591       .  S
C1097      C1100   1.576       .  S
C1097      C1621   1.556       .  S
C1098      C1102   1.524       .  S
C1098      C1104   1.519       .  S
C1098      C1103   1.529       .  S
C1098      C1632   1.527       .  S
C1099      C1107   1.421       .  A
C1099      C1102   1.398       .  A
C1100      C1111   1.402       .  A
C1100      C1103   1.399       .  A
C1101      C1115   1.421       .  A
C1101      C1104   1.383       .  A
C1102      C1105   1.373       .  A
C1103      C1109   1.366       .  A
C1104      C1112   1.377       .  A
C1105      N1106   1.348       .  A
N1106      C1107   1.361       .  A
C1107      H1108   1.078       .  S
C1109      N1658   1.355       .  A
N1110      C1657   1.355       .  A
N1110      C1659   1.374       .  A
C1111      N1658   1.374       .  A
C1111      H1117   1.082       .  S
C1112      N1113   1.342       .  A
C1112      H1114   1.083       .  S
N1113      C1115   1.377       .  A
N1113      C1128   1.454       .  S
C1115      H1116   1.079       .  S
O1120     Cr1138   1.966       .  S
O1120      C1128   1.259       .  A
O1121     Cr1138   2.047       .  S
O1121      C1122   1.277       .  A
C1122      O1123   1.260       .  A
C1122      C1576   1.496       .  S
O1123     Cr1139   1.962       .  S
O1124     Cr1139   2.077       .  S
O1124      C1125   1.273       .  A
C1125      N1155   1.449       .  S
C1125      O1126   1.257       .  A
O1126     Cr1140   1.965       .  S
O1127     Cr1140   2.074       .  S
O1127      C1128   1.274       .  A
O1129     Cr1138   2.019       .  S
O1129      C1137   1.275       .  A
O1130     Cr1138   1.926       .  S
O1130      C1131   1.248       .  A
C1131      N1151   1.436       .  S
C1131      O1132   1.269       .  A
O1132     Cr1139   2.031       .  S
O1133     Cr1139   1.936       .  S
O1133      C1134   1.242       .  A
C1134      O1135   1.270       .  A
C1134      C1590   1.472       .  S
O1135     Cr1140   2.076       .  S
O1136     Cr1140   1.943       .  S
O1136      C1137   1.254       .  A
C1137      C1604   1.446       .  S
Cr1138     O1141   1.751       .  S
Cr1139     O1141   1.778       .  S
Cr1140     O1141   1.768       .  S
C1142      C1144   1.558       .  S
C1142      C1146   1.586       .  S
C1142      C1145   1.568       .  S
C1142      C1548   1.553       .  S
C1143      C1147   1.524       .  S
C1143      C1149   1.538       .  S
C1143      C1148   1.524       .  S
C1143      C1562   1.539       .  S
C1144      C1152   1.405       .  A
C1144      C1147   1.404       .  A
C1145      C1156   1.405       .  A
C1145      C1148   1.393       .  A
C1146      C1160   1.414       .  A
C1146      C1149   1.395       .  A
C1147      C1150   1.364       .  A
C1148      C1154   1.357       .  A
C1149      C1157   1.382       .  A
C1150      N1151   1.345       .  A
C1150      H1163   1.082       .  S
N1151      C1152   1.354       .  A
C1152      H1153   1.080       .  S
C1154      N1703   1.353       .  A
C1154      H1164   1.081       .  S
N1155      C1702   1.353       .  A
N1155      C1704   1.372       .  A
C1156      N1703   1.372       .  A
C1156      H1162   1.082   1_554  S
C1157      N1158   1.343       .  A
C1157      H1159   1.081       .  S
N1158      C1160   1.371       .  A
N1158      C1173   1.451       .  S
C1160      H1161   1.082       .  S
O1165     Cr1183   1.982       .  S
O1165      C1173   1.261       .  A
O1166     Cr1183   2.047       .  S
O1166      C1167   1.277       .  A
C1167      O1168   1.258       .  A
C1167      C1506   1.494       .  S
O1168     Cr1184   1.959       .  S
O1169     Cr1184   2.073       .  S
O1169      C1170   1.274       .  A
O1171     Cr1185   1.967       .  S
O1172      C1173   1.267       .  A
O1174     Cr1183   2.018       .  S
O1175     Cr1183   1.955       .  S
O1175      C1176   1.253   1_565  A
C1176      O1177   1.272       .  A
O1177     Cr1184   2.051   1_545  S
O1178      C1179   1.247       .  A
C1179      O1180   1.267       .  A
C1179      C1520   1.465       .  S
O1180     Cr1185   2.056       .  S
O1181     Cr1185   1.939       .  S
O1181      C1182   1.255       .  A
C1182      C1534   1.450       .  S
Cr1183     O1186   1.760       .  S
Cr1184     O1186   1.784       .  S
O1187     Cr1205   2.021       .  S
O1187      C1195   1.265       .  A
O1188      C1189   1.257       .  A
C1189      O1190   1.274       .  A
C1189      C1579   1.497       .  S
O1190     Cr1206   2.038       .  S
O1191     Cr1206   1.962       .  S
O1191      C1192   1.245       .  A
C1192      C1537   1.455       .  S
O1193     Cr1207   2.003       .  S
O1194     Cr1207   1.958       .  S
O1194      C1195   1.257       .  A
O1196     Cr1205   1.983       .  S
O1196      C1204   1.261       .  A
O1197     Cr1205   2.010       .  S
O1197      C1198   1.268       .  A
C1198      O1199   1.266       .  A
C1198      C1354   1.480       .  S
O1200      C1201   1.282       .  A
C1201      O1202   1.259       .  A
C1201      C1551   1.505       .  S
O1202     Cr1207   1.965       .  S
O1203     Cr1207   1.993       .  S
O1203      C1204   1.264       .  A
C1204      C1593   1.466       .  S
Cr1205     O1208   1.779       .  S
Cr1207     O1208   1.761       .  S
O1209     Cr1227   2.004       .  S
O1209      C1217   1.264       .  A
O1210     Cr1227   1.955       .  S
O1210      C1211   1.255       .  A
C1211      O1212   1.272       .  A
C1211      C1509   1.490       .  S
O1212     Cr1228   2.031       .  S
O1213     Cr1228   1.971       .  S
O1213      C1214   1.251       .  A
C1214      O1215   1.258       .  A
C1214      C1607   1.456       .  S
O1215     Cr1229   1.994       .  S
O1216     Cr1229   1.953       .  S
O1216      C1217   1.259       .  A
C1217      C1565   1.449       .  S
O1218     Cr1227   1.993       .  S
O1218      C1226   1.262       .  A
O1219     Cr1227   1.996       .  S
O1219      C1220   1.267       .  A
C1220      O1221   1.266       .  A
C1220      C1332   1.474   1_655  S
O1221     Cr1228   1.995       .  S
O1222     Cr1228   2.059       .  S
O1222      C1223   1.277       .  A
C1223      O1224   1.256       .  A
C1223      C1618   1.491       .  S
O1224     Cr1229   1.961       .  S
O1225     Cr1229   1.965       .  S
O1225      C1226   1.257       .  A
C1226      C1523   1.465       .  S
Cr1227     O1230   1.779       .  S
Cr1228     O1230   1.785       .  S
Cr1229     O1230   1.761       .  S
C1231      C1233   1.558       .  S
C1231      C1235   1.570       .  S
C1231      C1234   1.587       .  S
C1231      C1478   1.553       .  S
C1232      C1236   1.511       .  S
C1232      C1238   1.500       .  S
C1232      C1237   1.525       .  S
C1232      C1492   1.528       .  S
C1233      C1241   1.401       .  A
C1233      C1236   1.372       .  A
C1234      C1245   1.410       .  A
C1234      C1237   1.439       .  A
C1235      C1249   1.414       .  A
C1235      C1238   1.381       .  A
C1236      C1239   1.359       .  A
C1237      C1243   1.357       .  A
C1238      C1246   1.366       .  A
C1239      N1240   1.349       .  A
N1240      C1241   1.361       .  A
C1241      H1242   1.081       .  S
C1243      N1792   1.344   1_554  A
N1244      C1791   1.344       .  A
N1244      C1793   1.369       .  A
C1245      N1792   1.369   1_554  A
C1245      H1251   1.082   1_554  S
C1246      N1247   1.342       .  A
C1246      H1248   1.084       .  S
N1247      C1249   1.375       .  A
N1247      C1262   1.446       .  S
C1249      H1250   1.082       .  S
O1254     Cr1272   1.945       .  S
O1254      C1262   1.252       .  A
O1255     Cr1272   2.046       .  S
O1255      C1256   1.275       .  A
C1256      O1257   1.258       .  A
C1256      C1439   1.495       .  S
O1257     Cr1273   1.959       .  S
O1258     Cr1273   2.100       .  S
O1258      C1259   1.278       .  A
C1259      N1289   1.457       .  S
C1259      O1260   1.255       .  A
O1260     Cr1274   1.960       .  S
O1261     Cr1274   2.081       .  S
O1261      C1262   1.271       .  A
O1263     Cr1272   2.042       .  S
O1263      C1271   1.279       .  A
O1264     Cr1272   1.916       .  S
O1264      C1265   1.248       .  A
C1265      N1285   1.445       .  S
C1265      O1266   1.280       .  A
O1266     Cr1273   2.066       .  S
O1267     Cr1273   1.933       .  S
O1267      C1268   1.244       .  A
C1268      O1269   1.269       .  A
C1268      C1453   1.469       .  S
O1269     Cr1274   2.069       .  S
O1270     Cr1274   1.922       .  S
O1270      C1271   1.249       .  A
C1271      C1464   1.442       .  S
Cr1272     O1275   1.747       .  S
Cr1273     O1275   1.766       .  S
Cr1274     O1275   1.765       .  S
C1276      C1278   1.547       .  S
C1276      C1280   1.560       .  S
C1276      C1279   1.586       .  S
C1276      C1411   1.547       .  S
C1277      C1281   1.524       .  S
C1277      C1283   1.522       .  S
C1277      C1282   1.553       .  S
C1277      C1422   1.539       .  S
C1278      C1286   1.404       .  A
C1278      C1281   1.382       .  A
C1279      C1290   1.405       .  A
C1279      C1282   1.425       .  A
C1280      C1294   1.398       .  A
C1280      C1283   1.368       .  A
C1281      C1284   1.372       .  A
C1282      C1288   1.363       .  A
C1283      C1291   1.380       .  A
C1284      N1285   1.356       .  A
C1284      H1297   1.083       .  S
N1285      C1286   1.355       .  A
C1286      H1287   1.082       .  S
C1288      N1837   1.360       .  A
C1288      H1298   1.077       .  S
N1289      C1836   1.360   1_554  A
N1289      C1838   1.376   1_554  A
C1290      N1837   1.376       .  A
C1290      H1296   1.082       .  S
C1291      N1292   1.349       .  A
C1291      H1293   1.083       .  S
N1292      C1294   1.370       .  A
N1292      C1307   1.447       .  S
C1294      H1295   1.072       .  S
O1299     Cr1317   1.962       .  S
O1299      C1307   1.257       .  A
O1300     Cr1317   2.022       .  S
O1300      C1301   1.273       .  A
C1301      O1302   1.262       .  A
C1301      C1366   1.482       .  S
O1302     Cr1318   1.972       .  S
O1303     Cr1318   2.063   1_545  S
O1303      C1304   1.267   1_545  A
O1305     Cr1319   1.967       .  S
O1306      C1307   1.271       .  A
O1308     Cr1317   2.030       .  S
O1309     Cr1317   1.932       .  S
O1309      C1310   1.255       .  A
C1310      O1311   1.271       .  A
O1311     Cr1318   2.043       .  S
O1312      C1313   1.254       .  A
C1313      O1314   1.267       .  A
C1313      C1383   1.450       .  S
O1314     Cr1319   2.036       .  S
O1315     Cr1319   1.956       .  S
O1315      C1316   1.252       .  A
C1316      C1394   1.461       .  S
Cr1317     O1320   1.746       .  S
Cr1318     O1320   1.783       .  S
O1321     Cr1339   2.004       .  S
O1321      C1329   1.259       .  A
O1322     Cr1339   1.994       .  S
O1322      C1323   1.265       .  A
C1323      O1324   1.263       .  A
C1323      C1369   1.490       .  S
O1324     Cr1340   1.976       .  S
O1325     Cr1340   2.012       .  S
O1325      C1326   1.268       .  A
C1326      O1327   1.258       .  A
C1326      C1467   1.452       .  S
O1327     Cr1341   1.955       .  S
O1328     Cr1341   1.975       .  S
O1328      C1329   1.247       .  A
C1329      C1425   1.461       .  S
O1330     Cr1339   2.028       .  S
O1330      C1338   1.273       .  A
O1331     Cr1339   1.991       .  S
O1331      C1332   1.264       .  A
C1332      O1333   1.265       .  A
O1333     Cr1340   1.992       .  S
O1334     Cr1340   2.046       .  S
O1334      C1335   1.274       .  A
C1335      O1336   1.257       .  A
C1335      C1481   1.494       .  S
O1336     Cr1341   1.997       .  S
O1337     Cr1341   1.941       .  S
O1337      C1338   1.261       .  A
C1338      C1380   1.463       .  S
Cr1339     O1342   1.779       .  S
Cr1340     O1342   1.776       .  S
Cr1341     O1342   1.745       .  S
O1343     Cr1361   2.039       .  S
O1343      C1351   1.274       .  A
O1344      C1345   1.254       .  A
C1345      O1346   1.273       .  A
C1345      C1436   1.484       .  S
O1346     Cr1362   2.030       .  S
O1347     Cr1362   1.974       .  S
O1347      C1348   1.248       .  A
C1348      C1397   1.455       .  S
O1349     Cr1363   2.003       .  S
O1350     Cr1363   1.931       .  S
O1350      C1351   1.258       .  A
O1352     Cr1361   1.999       .  S
O1352      C1360   1.261       .  A
O1353     Cr1361   2.022       .  S
O1353      C1354   1.274       .  A
C1354      O1355   1.269       .  A
O1356      C1357   1.282       .  A
C1357      O1358   1.251       .  A
C1357      C1408   1.513       .  S
O1358     Cr1363   1.968       .  S
O1359     Cr1363   1.969       .  S
O1359      C1360   1.254       .  A
C1360      C1450   1.467       .  S
Cr1361     O1364   1.773       .  S
Cr1363     O1364   1.739       .  S
C1365      C1366   1.404       .  A
C1365      C1370   1.407       .  A
C1365      H1372   1.084       .  S
C1366      C1367   1.411       .  A
C1367      C1368   1.402       .  A
C1367      N1374   1.439       .  S
C1368      C1369   1.408       .  A
C1368      H1373   1.083       .  S
C1369      C1370   1.414       .  A
C1370      N1371   1.432       .  S
N1371      H1375   1.045       .  S
N1371      H1376   1.046       .  S
N1374      H1377   1.046       .  S
N1374      H1378   1.046       .  S
C1379      C1380   1.406       .  A
C1379      C1384   1.387       .  A
C1379      H1386   1.085       .  S
C1380      C1381   1.406       .  A
C1381      C1382   1.398       .  A
C1381      N1388   1.432       .  S
C1382      C1383   1.406       .  A
C1382      H1387   1.081       .  S
C1383      C1384   1.404       .  A
C1384      N1385   1.434       .  S
N1385      H1389   1.045       .  S
N1385      H1390   1.045       .  S
N1388      H1391   1.046       .  S
N1388      H1392   1.045       .  S
C1393      C1394   1.397       .  A
C1393      C1398   1.407       .  A
C1393      H1400   1.078       .  S
C1395      C1396   1.394       .  A
C1395      N1402   1.427       .  S
C1396      H1401   1.085       .  S
C1397      C1398   1.409       .  A
C1398      N1399   1.436       .  S
N1399      H1403   1.045       .  S
N1399      H1404   1.044       .  S
N1402      H1405   1.043       .  S
N1402      H1406   1.044       .  S
C1407      C1408   1.396       .  A
C1407      C1412   1.376       .  A
C1407      H1414   1.080       .  S
C1408      C1409   1.423       .  A
C1409      C1410   1.435       .  A
C1409      N1416   1.435       .  S
C1410      C1411   1.419       .  A
C1410      H1415   1.082       .  S
C1411      C1412   1.436       .  A
C1412      N1413   1.447       .  S
N1413      H1417   1.046       .  S
N1413      H1418   1.034       .  S
N1416      H1419   1.045       .  S
N1416      H1420   1.045       .  S
C1421      C1422   1.403       .  A
C1421      C1426   1.409       .  A
C1421      H1428   1.073       .  S
C1422      C1423   1.430       .  A
C1423      C1424   1.391       .  A
C1423      N1430   1.434       .  S
C1424      C1425   1.387       .  A
C1424      H1429   1.086       .  S
C1425      C1426   1.420       .  A
C1426      N1427   1.438       .  S
N1427      H1431   1.046       .  S
N1427      H1432   1.044       .  S
N1430      H1433   1.045       .  S
N1430      H1434   1.041       .  S
C1435      C1436   1.407       .  A
C1435      C1440   1.418       .  A
C1435      H1442   1.083       .  S
C1436      C1437   1.409       .  A
C1437      C1438   1.403       .  A
C1437      N1444   1.438       .  S
C1438      C1439   1.407       .  A
C1438      H1443   1.084       .  S
C1439      C1440   1.415       .  A
C1440      N1441   1.437       .  S
N1441      H1445   1.046       .  S
N1441      H1446   1.045       .  S
N1444      H1447   1.045       .  S
N1444      H1448   1.046       .  S
C1449      C1450   1.392       .  A
C1449      C1454   1.399       .  A
C1449      H1456   1.084       .  S
C1450      C1451   1.414       .  A
C1451      C1452   1.402       .  A
C1451      N1458   1.424       .  S
C1452      C1453   1.389       .  A
C1452      H1457   1.084       .  S
C1453      C1454   1.418       .  A
C1454      N1455   1.432       .  S
N1455      H1459   1.046       .  S
N1455      H1460   1.046       .  S
N1458      H1461   1.046       .  S
N1458      H1462   1.044       .  S
C1463      C1464   1.395       .  A
C1463      C1468   1.394       .  A
C1463      H1470   1.084       .  S
C1464      C1465   1.403       .  A
C1465      C1466   1.401       .  A
C1465      N1472   1.436       .  S
C1466      C1467   1.406       .  A
C1466      H1471   1.084       .  S
C1467      C1468   1.406       .  A
C1468      N1469   1.436       .  S
N1469      H1473   1.045       .  S
N1469      H1474   1.045       .  S
N1472      H1475   1.046       .  S
N1472      H1476   1.045       .  S
C1477      C1478   1.414       .  A
C1477      C1482   1.428       .  A
C1477      H1484   1.083       .  S
C1478      C1479   1.434       .  A
C1479      C1480   1.393       .  A
C1479      N1486   1.442       .  S
C1480      C1481   1.392       .  A
C1480      H1485   1.080       .  S
C1481      C1482   1.425       .  A
C1482      N1483   1.435       .  S
N1483      H1487   1.044       .  S
N1483      H1488   1.045       .  S
N1486      H1489   1.040       .  S
N1486      H1490   1.045       .  S
C1491      C1492   1.407       .  A
C1491      C1496   1.415       .  A
C1491      H1498   1.081       .  S
C1492      C1493   1.415       .  A
C1493      N1500   1.434       .  S
C1494      H1499   1.077       .  S
C1495      C1496   1.406       .  A
C1496      N1497   1.422       .  S
N1497      H1501   1.045       .  S
N1497      H1502   1.041       .  S
N1500      H1503   1.045       .  S
C1505      C1506   1.406       .  A
C1505      C1510   1.415       .  A
C1505      H1512   1.083       .  S
C1506      C1507   1.417       .  A
C1507      C1508   1.406       .  A
C1507      N1514   1.439       .  S
C1508      C1509   1.403       .  A
C1508      H1513   1.084       .  S
C1509      C1510   1.413       .  A
C1510      N1511   1.431       .  S
N1511      H1515   1.045       .  S
N1511      H1516   1.045       .  S
N1514      H1517   1.046       .  S
N1514      H1518   1.046       .  S
C1519      C1520   1.410       .  A
C1519      C1524   1.403       .  A
C1519      H1526   1.083       .  S
C1520      C1521   1.401       .  A
C1521      C1522   1.397       .  A
C1521      N1528   1.432       .  S
C1522      C1523   1.412       .  A
C1522      H1527   1.085       .  S
C1523      C1524   1.401       .  A
C1524      N1525   1.437       .  S
N1525      H1529   1.046       .  S
N1525      H1530   1.045       .  S
N1528      H1531   1.046       .  S
N1528      H1532   1.044       .  S
C1533      C1534   1.403       .  A
C1533      C1538   1.404       .  A
C1533      H1540   1.084       .  S
C1534      C1535   1.402       .  A
C1535      C1536   1.383       .  A
C1535      N1542   1.428       .  S
C1536      C1537   1.391       .  A
C1536      H1541   1.075       .  S
C1537      C1538   1.404       .  A
C1538      N1539   1.435       .  S
N1539      H1543   1.046       .  S
N1539      H1544   1.045       .  S
C1547      C1548   1.401       .  A
C1547      C1552   1.406       .  A
C1547      H1554   1.080       .  S
C1548      C1549   1.421       .  A
C1549      C1550   1.412       .  A
C1549      N1556   1.436       .  S
C1550      C1551   1.410       .  A
C1550      H1555   1.083       .  S
C1551      C1552   1.424       .  A
C1552      N1553   1.430       .  S
N1553      H1557   1.043       .  S
N1553      H1558   1.040       .  S
N1556      H1559   1.040       .  S
N1556      H1560   1.044       .  S
C1561      C1562   1.411       .  A
C1561      C1566   1.392       .  A
C1561      H1568   1.078       .  S
C1562      C1563   1.424       .  A
C1563      C1564   1.401       .  A
C1563      N1570   1.432       .  S
C1564      C1565   1.395       .  A
C1564      H1569   1.085       .  S
C1565      C1566   1.396       .  A
C1566      N1567   1.439       .  S
N1567      H1571   1.046       .  S
N1567      H1572   1.045       .  S
N1570      H1573   1.046       .  S
N1570      H1574   1.046       .  S
C1575      C1576   1.404       .  A
C1575      C1580   1.411       .  A
C1575      H1582   1.084       .  S
C1576      C1577   1.415       .  A
C1577      C1578   1.408       .  A
C1577      N1584   1.438       .  S
C1578      C1579   1.405       .  A
C1578      H1583   1.084       .  S
C1579      C1580   1.423       .  A
C1580      N1581   1.433       .  S
N1581      H1585   1.041       .  S
N1581      H1586   1.044       .  S
N1584      H1587   1.046       .  S
N1584      H1588   1.045       .  S
C1589      C1590   1.411       .  A
C1589      C1594   1.400       .  A
C1589      H1596   1.084       .  S
C1590      C1591   1.399       .  A
C1591      C1592   1.407       .  A
C1591      N1598   1.434       .  S
C1592      C1593   1.408       .  A
C1592      H1597   1.078       .  S
C1593      C1594   1.401       .  A
C1594      N1595   1.439       .  S
N1595      H1599   1.046       .  S
N1595      H1600   1.046       .  S
N1598      H1601   1.041       .  S
N1598      H1602   1.045       .  S
C1603      C1604   1.390       .  A
C1603      C1608   1.391       .  A
C1603      H1610   1.085       .  S
C1604      C1605   1.404       .  A
C1605      C1606   1.400       .  A
C1605      N1612   1.438       .  S
C1606      C1607   1.402       .  A
C1606      H1611   1.084       .  S
C1607      C1608   1.416       .  A
C1608      N1609   1.434       .  S
N1609      H1613   1.043       .  S
N1609      H1614   1.042       .  S
N1612      H1615   1.046       .  S
N1612      H1616   1.045       .  S
C1617      C1618   1.406       .  A
C1617      C1622   1.414       .  A
C1617      H1624   1.083       .  S
C1618      C1619   1.415       .  A
C1619      C1620   1.408       .  A
C1619      N1626   1.437       .  S
C1620      C1621   1.409       .  A
C1620      H1625   1.082       .  S
C1621      C1622   1.415       .  A
C1622      N1623   1.428       .  S
N1623      H1627   1.045       .  S
N1623      H1628   1.043       .  S
N1626      H1629   1.045       .  S
N1626      H1630   1.046       .  S
C1631      C1632   1.403       .  A
C1631      H1638   1.071       .  S
C1632      C1633   1.424       .  A
C1633      C1634   1.388       .  A
C1633      N1640   1.436       .  S
C1634      C1635   1.390       .  A
C1634      H1639   1.081       .  S
C1636      N1637   1.432       .  S
N1637      H1641   1.046       .  S
N1637      H1642   1.045       .  S
N1640      H1643   1.045       .  S
N1640      H1644   1.043       .  S
C1645      C1647   1.580       .  S
C1645      C1649   1.591       .  S
C1645      C1648   1.576       .  S
C1645      C2169   1.556       .  S
C1646      C1650   1.524       .  S
C1646      C1652   1.519       .  S
C1646      C1651   1.529       .  S
C1646      C2180   1.527       .  S
C1647      C1655   1.421       .  A
C1647      C1650   1.398       .  A
C1648      C1659   1.402       .  A
C1648      C1651   1.399       .  A
C1649      C1663   1.421       .  A
C1649      C1652   1.383       .  A
C1650      C1653   1.373       .  A
C1651      C1657   1.366       .  A
C1652      C1660   1.377       .  A
C1653      N1654   1.348       .  A
N1654      C1655   1.361       .  A
C1655      H1656   1.078       .  S
C1659      H1665   1.082   1_556  S
C1660      N1661   1.342       .  A
C1660      H1662   1.083       .  S
N1661      C1663   1.377       .  A
N1661      C1676   1.454       .  S
C1663      H1664   1.079       .  S
O1668     Cr1686   1.966       .  S
O1668      C1676   1.259       .  A
O1669     Cr1686   2.047       .  S
O1669      C1670   1.277       .  A
C1670      O1671   1.260       .  A
C1670      C2124   1.496       .  S
O1671     Cr1687   1.962       .  S
O1672     Cr1687   2.077       .  S
O1672      C1673   1.273       .  A
C1673      N1703   1.449   1_556  S
C1673      O1674   1.257       .  A
O1674     Cr1688   1.965       .  S
O1675     Cr1688   2.074       .  S
O1675      C1676   1.274       .  A
O1677     Cr1686   2.019       .  S
O1677      C1685   1.275       .  A
O1678     Cr1686   1.926       .  S
O1678      C1679   1.248       .  A
C1679      N1699   1.436       .  S
C1679      O1680   1.269       .  A
O1680     Cr1687   2.031       .  S
O1681     Cr1687   1.936       .  S
O1681      C1682   1.242       .  A
C1682      O1683   1.270       .  A
C1682      C2138   1.472       .  S
O1683     Cr1688   2.076       .  S
O1684     Cr1688   1.943       .  S
O1684      C1685   1.254       .  A
C1685      C2152   1.446       .  S
Cr1686     O1689   1.751       .  S
Cr1687     O1689   1.778       .  S
Cr1688     O1689   1.768       .  S
C1690      C1692   1.558       .  S
C1690      C1694   1.586       .  S
C1690      C1693   1.568       .  S
C1690      C2096   1.553       .  S
C1691      C1695   1.524       .  S
C1691      C1697   1.538       .  S
C1691      C1696   1.524       .  S
C1691      C2110   1.539       .  S
C1692      C1700   1.405       .  A
C1692      C1695   1.404       .  A
C1693      C1704   1.405       .  A
C1693      C1696   1.393       .  A
C1694      C1708   1.414       .  A
C1694      C1697   1.395       .  A
C1695      C1698   1.364       .  A
C1696      C1702   1.357       .  A
C1697      C1705   1.382       .  A
C1698      N1699   1.345       .  A
C1698      H1711   1.082       .  S
N1699      C1700   1.354       .  A
C1700      H1701   1.080       .  S
C1702      H1712   1.081       .  S
C1704      H1710   1.082       .  S
C1705      N1706   1.343       .  A
C1705      H1707   1.081       .  S
N1706      C1708   1.371       .  A
N1706      C1721   1.451       .  S
C1708      H1709   1.082       .  S
O1713     Cr1731   1.982       .  S
O1713      C1721   1.261       .  A
O1714     Cr1731   2.047       .  S
O1714      C1715   1.277       .  A
C1715      O1716   1.259       .  A
C1715      C2054   1.494       .  S
O1716     Cr1732   1.959       .  S
O1717     Cr1732   2.073       .  S
O1717      C1718   1.274       .  A
O1719     Cr1733   1.967       .  S
O1720      C1721   1.267       .  A
O1722     Cr1731   2.018       .  S
O1723     Cr1731   1.955       .  S
O1723      C1724   1.253   1_565  A
C1724      O1725   1.272       .  A
O1725     Cr1732   2.051   1_545  S
O1726      C1727   1.247       .  A
C1727      O1728   1.267       .  A
C1727      C2068   1.465       .  S
O1728     Cr1733   2.056       .  S
O1729     Cr1733   1.939       .  S
O1729      C1730   1.255       .  A
C1730      C2082   1.450       .  S
Cr1731     O1734   1.760       .  S
Cr1732     O1734   1.784       .  S
O1735     Cr1753   2.021       .  S
O1735      C1743   1.265       .  A
O1736      C1737   1.257       .  A
C1737      O1738   1.274       .  A
C1737      C2127   1.497       .  S
O1738     Cr1754   2.038       .  S
O1739     Cr1754   1.962       .  S
O1739      C1740   1.245       .  A
C1740      C2085   1.455       .  S
O1741     Cr1755   2.003       .  S
O1742     Cr1755   1.958       .  S
O1742      C1743   1.257       .  A
O1744     Cr1753   1.983       .  S
O1744      C1752   1.261       .  A
O1745     Cr1753   2.010       .  S
O1745      C1746   1.268       .  A
C1746      O1747   1.266       .  A
C1746      C1902   1.480       .  S
O1748      C1749   1.282       .  A
C1749      O1750   1.259       .  A
C1749      C2099   1.505       .  S
O1750     Cr1755   1.965       .  S
O1751     Cr1755   1.993       .  S
O1751      C1752   1.264       .  A
C1752      C2141   1.466       .  S
Cr1753     O1756   1.779       .  S
Cr1755     O1756   1.761       .  S
O1757     Cr1775   2.004       .  S
O1757      C1765   1.264       .  A
O1758     Cr1775   1.955       .  S
O1758      C1759   1.255       .  A
C1759      O1760   1.272       .  A
C1759      C2057   1.490       .  S
O1760     Cr1776   2.031       .  S
O1761     Cr1776   1.971       .  S
O1761      C1762   1.251       .  A
C1762      O1763   1.258       .  A
C1762      C2155   1.456       .  S
O1763     Cr1777   1.994       .  S
O1764     Cr1777   1.953       .  S
O1764      C1765   1.259       .  A
C1765      C2113   1.449       .  S
O1766     Cr1775   1.993       .  S
O1766      C1774   1.262       .  A
O1767     Cr1775   1.996       .  S
O1767      C1768   1.267       .  A
C1768      O1769   1.266       .  A
C1768      C1880   1.474   1_655  S
O1769     Cr1776   1.995       .  S
O1770     Cr1776   2.059       .  S
O1770      C1771   1.277       .  A
C1771      O1772   1.256       .  A
C1771      C2166   1.491       .  S
O1772     Cr1777   1.961       .  S
O1773     Cr1777   1.965       .  S
O1773      C1774   1.257       .  A
C1774      C2071   1.465       .  S
Cr1775     O1778   1.779       .  S
Cr1776     O1778   1.785       .  S
Cr1777     O1778   1.761       .  S
C1779      C1781   1.558       .  S
C1779      C1783   1.570       .  S
C1779      C1782   1.587       .  S
C1779      C2026   1.553       .  S
C1780      C1784   1.511       .  S
C1780      C1786   1.500       .  S
C1780      C1785   1.525       .  S
C1780      C2040   1.528       .  S
C1781      C1789   1.401       .  A
C1781      C1784   1.372       .  A
C1782      C1793   1.410       .  A
C1782      C1785   1.439       .  A
C1783      C1797   1.414       .  A
C1783      C1786   1.381       .  A
C1784      C1787   1.359       .  A
C1785      C1791   1.357       .  A
C1786      C1794   1.366       .  A
C1787      N1788   1.349       .  A
N1788      C1789   1.361       .  A
C1789      H1790   1.081       .  S
C1793      H1799   1.082       .  S
C1794      N1795   1.342       .  A
C1794      H1796   1.084       .  S
N1795      C1797   1.375       .  A
N1795      C1810   1.446       .  S
C1797      H1798   1.082       .  S
O1802     Cr1820   1.945       .  S
O1802      C1810   1.252       .  A
O1803     Cr1820   2.046       .  S
O1803      C1804   1.275       .  A
C1804      O1805   1.258       .  A
C1804      C1987   1.495       .  S
O1805     Cr1821   1.959       .  S
O1806     Cr1821   2.100       .  S
O1806      C1807   1.278       .  A
C1807      N1837   1.457       .  S
C1807      O1808   1.255       .  A
O1808     Cr1822   1.960       .  S
O1809     Cr1822   2.081       .  S
O1809      C1810   1.271       .  A
O1811     Cr1820   2.042       .  S
O1811      C1819   1.279       .  A
O1812     Cr1820   1.916       .  S
O1812      C1813   1.248       .  A
C1813      N1833   1.445       .  S
C1813      O1814   1.280       .  A
O1814     Cr1821   2.066       .  S
O1815     Cr1821   1.933       .  S
O1815      C1816   1.244       .  A
C1816      O1817   1.269       .  A
C1816      C2001   1.469       .  S
O1817     Cr1822   2.069       .  S
O1818     Cr1822   1.922       .  S
O1818      C1819   1.249       .  A
C1819      C2012   1.442       .  S
Cr1820     O1823   1.747       .  S
Cr1821     O1823   1.766       .  S
Cr1822     O1823   1.765       .  S
C1824      C1826   1.547       .  S
C1824      C1828   1.560       .  S
C1824      C1827   1.586       .  S
C1824      C1959   1.547       .  S
C1825      C1829   1.524       .  S
C1825      C1831   1.522       .  S
C1825      C1830   1.553       .  S
C1825      C1970   1.539       .  S
C1826      C1834   1.404       .  A
C1826      C1829   1.382       .  A
C1827      C1838   1.405       .  A
C1827      C1830   1.425       .  A
C1828      C1842   1.398       .  A
C1828      C1831   1.368       .  A
C1829      C1832   1.372       .  A
C1830      C1836   1.363       .  A
C1831      C1839   1.380       .  A
C1832      N1833   1.356       .  A
C1832      H1845   1.083       .  S
N1833      C1834   1.355       .  A
C1834      H1835   1.082       .  S
C1836      H1846   1.077       .  S
C1838      H1844   1.082   1_556  S
C1839      N1840   1.349       .  A
C1839      H1841   1.083       .  S
N1840      C1842   1.370       .  A
N1840      C1855   1.447       .  S
C1842      H1843   1.072       .  S
O1847     Cr1865   1.962       .  S
O1847      C1855   1.257       .  A
O1848     Cr1865   2.022       .  S
O1848      C1849   1.273       .  A
C1849      O1850   1.262       .  A
C1849      C1914   1.482       .  S
O1850     Cr1866   1.972       .  S
O1851     Cr1866   2.063   1_545  S
O1851      C1852   1.267   1_545  A
O1853     Cr1867   1.967       .  S
O1854      C1855   1.271       .  A
O1856     Cr1865   2.030       .  S
O1857     Cr1865   1.932       .  S
O1857      C1858   1.255       .  A
C1858      O1859   1.271       .  A
O1859     Cr1866   2.043       .  S
O1860      C1861   1.254       .  A
C1861      O1862   1.267       .  A
C1861      C1931   1.450       .  S
O1862     Cr1867   2.036       .  S
O1863     Cr1867   1.956       .  S
O1863      C1864   1.252       .  A
C1864      C1942   1.461       .  S
Cr1865     O1868   1.746       .  S
Cr1866     O1868   1.783       .  S
O1869     Cr1887   2.004       .  S
O1869      C1877   1.259       .  A
O1870     Cr1887   1.994       .  S
O1870      C1871   1.265       .  A
C1871      O1872   1.263       .  A
C1871      C1917   1.490       .  S
O1872     Cr1888   1.976       .  S
O1873     Cr1888   2.012       .  S
O1873      C1874   1.268       .  A
C1874      O1875   1.258       .  A
C1874      C2015   1.452       .  S
O1875     Cr1889   1.955       .  S
O1876     Cr1889   1.975       .  S
O1876      C1877   1.247       .  A
C1877      C1973   1.461       .  S
O1878     Cr1887   2.028       .  S
O1878      C1886   1.273       .  A
O1879     Cr1887   1.991       .  S
O1879      C1880   1.264       .  A
C1880      O1881   1.265       .  A
O1881     Cr1888   1.992       .  S
O1882     Cr1888   2.046       .  S
O1882      C1883   1.274       .  A
C1883      O1884   1.257       .  A
C1883      C2029   1.494       .  S
O1884     Cr1889   1.997       .  S
O1885     Cr1889   1.941       .  S
O1885      C1886   1.261       .  A
C1886      C1928   1.463       .  S
Cr1887     O1890   1.779       .  S
Cr1888     O1890   1.776       .  S
Cr1889     O1890   1.745       .  S
O1891     Cr1909   2.039       .  S
O1891      C1899   1.274       .  A
O1892      C1893   1.254       .  A
C1893      O1894   1.273       .  A
C1893      C1984   1.484       .  S
O1894     Cr1910   2.030       .  S
O1895     Cr1910   1.974       .  S
O1895      C1896   1.247       .  A
C1896      C1945   1.455       .  S
O1897     Cr1911   2.003       .  S
O1898     Cr1911   1.931       .  S
O1898      C1899   1.258       .  A
O1900     Cr1909   1.999       .  S
O1900      C1908   1.261       .  A
O1901     Cr1909   2.022       .  S
O1901      C1902   1.274       .  A
C1902      O1903   1.269       .  A
O1904      C1905   1.282       .  A
C1905      O1906   1.251       .  A
C1905      C1956   1.513       .  S
O1906     Cr1911   1.968       .  S
O1907     Cr1911   1.969       .  S
O1907      C1908   1.254       .  A
C1908      C1998   1.467       .  S
Cr1909     O1912   1.773       .  S
Cr1911     O1912   1.739       .  S
C1913      C1914   1.404       .  A
C1913      C1918   1.407       .  A
C1913      H1920   1.084       .  S
C1914      C1915   1.411       .  A
C1915      C1916   1.403       .  A
C1915      N1922   1.439       .  S
C1916      C1917   1.408       .  A
C1916      H1921   1.083       .  S
C1917      C1918   1.414       .  A
C1918      N1919   1.432       .  S
N1919      H1923   1.045       .  S
N1919      H1924   1.046       .  S
N1922      H1925   1.046       .  S
N1922      H1926   1.046       .  S
C1927      C1928   1.406       .  A
C1927      C1932   1.387       .  A
C1927      H1934   1.085       .  S
C1928      C1929   1.406       .  A
C1929      C1930   1.398       .  A
C1929      N1936   1.432       .  S
C1930      C1931   1.406       .  A
C1930      H1935   1.081       .  S
C1931      C1932   1.404       .  A
C1932      N1933   1.434       .  S
N1933      H1937   1.045       .  S
N1933      H1938   1.045       .  S
N1936      H1939   1.046       .  S
N1936      H1940   1.045       .  S
C1941      C1942   1.397       .  A
C1941      C1946   1.407       .  A
C1941      H1948   1.078       .  S
C1943      C1944   1.394       .  A
C1943      N1950   1.427       .  S
C1944      H1949   1.085       .  S
C1945      C1946   1.409       .  A
C1946      N1947   1.436       .  S
N1947      H1951   1.045       .  S
N1947      H1952   1.044       .  S
N1950      H1953   1.043       .  S
N1950      H1954   1.044       .  S
C1955      C1956   1.396       .  A
C1955      C1960   1.376       .  A
C1955      H1962   1.080       .  S
C1956      C1957   1.423       .  A
C1957      C1958   1.435       .  A
C1957      N1964   1.435       .  S
C1958      C1959   1.419       .  A
C1958      H1963   1.082       .  S
C1959      C1960   1.436       .  A
C1960      N1961   1.447       .  S
N1961      H1965   1.046       .  S
N1961      H1966   1.034       .  S
N1964      H1967   1.045       .  S
N1964      H1968   1.045       .  S
C1969      C1970   1.403       .  A
C1969      C1974   1.409       .  A
C1969      H1976   1.073       .  S
C1970      C1971   1.430       .  A
C1971      C1972   1.391       .  A
C1971      N1978   1.434       .  S
C1972      C1973   1.387       .  A
C1972      H1977   1.086       .  S
C1973      C1974   1.420       .  A
C1974      N1975   1.438       .  S
N1975      H1979   1.046       .  S
N1975      H1980   1.044       .  S
N1978      H1981   1.045       .  S
N1978      H1982   1.041       .  S
C1983      C1984   1.407       .  A
C1983      C1988   1.418       .  A
C1983      H1990   1.083       .  S
C1984      C1985   1.409       .  A
C1985      C1986   1.403       .  A
C1985      N1992   1.438       .  S
C1986      C1987   1.407       .  A
C1986      H1991   1.084       .  S
C1987      C1988   1.415       .  A
C1988      N1989   1.437       .  S
N1989      H1993   1.046       .  S
N1989      H1994   1.045       .  S
N1992      H1995   1.045       .  S
N1992      H1996   1.046       .  S
C1997      C1998   1.392       .  A
C1997      C2002   1.399       .  A
C1997      H2004   1.084       .  S
C1998      C1999   1.414       .  A
C1999      C2000   1.402       .  A
C1999      N2006   1.424       .  S
C2000      C2001   1.389       .  A
C2000      H2005   1.084       .  S
C2001      C2002   1.418       .  A
C2002      N2003   1.432       .  S
N2003      H2007   1.046       .  S
N2003      H2008   1.046       .  S
N2006      H2009   1.046       .  S
N2006      H2010   1.044       .  S
C2011      C2012   1.395       .  A
C2011      C2016   1.394       .  A
C2011      H2018   1.084       .  S
C2012      C2013   1.403       .  A
C2013      C2014   1.401       .  A
C2013      N2020   1.436       .  S
C2014      C2015   1.406       .  A
C2014      H2019   1.084       .  S
C2015      C2016   1.406       .  A
C2016      N2017   1.436       .  S
N2017      H2021   1.045       .  S
N2017      H2022   1.045       .  S
N2020      H2023   1.046       .  S
N2020      H2024   1.045       .  S
C2025      C2026   1.414       .  A
C2025      C2030   1.428       .  A
C2025      H2032   1.083       .  S
C2026      C2027   1.434       .  A
C2027      C2028   1.393       .  A
C2027      N2034   1.442       .  S
C2028      C2029   1.392       .  A
C2028      H2033   1.080       .  S
C2029      C2030   1.425       .  A
C2030      N2031   1.435       .  S
N2031      H2035   1.044       .  S
N2031      H2036   1.045       .  S
N2034      H2037   1.040       .  S
N2034      H2038   1.045       .  S
C2039      C2040   1.407       .  A
C2039      C2044   1.415       .  A
C2039      H2046   1.081       .  S
C2040      C2041   1.415       .  A
C2041      N2048   1.434       .  S
C2042      H2047   1.077       .  S
C2043      C2044   1.406       .  A
C2044      N2045   1.422       .  S
N2045      H2049   1.045       .  S
N2045      H2050   1.041       .  S
N2048      H2051   1.045       .  S
C2053      C2054   1.406       .  A
C2053      C2058   1.415       .  A
C2053      H2060   1.083       .  S
C2054      C2055   1.417       .  A
C2055      C2056   1.406       .  A
C2055      N2062   1.439       .  S
C2056      C2057   1.403       .  A
C2056      H2061   1.084       .  S
C2057      C2058   1.413       .  A
C2058      N2059   1.431       .  S
N2059      H2063   1.045       .  S
N2059      H2064   1.045       .  S
N2062      H2065   1.046       .  S
N2062      H2066   1.046       .  S
C2067      C2068   1.410       .  A
C2067      C2072   1.403       .  A
C2067      H2074   1.083       .  S
C2068      C2069   1.401       .  A
C2069      C2070   1.397       .  A
C2069      N2076   1.432       .  S
C2070      C2071   1.412       .  A
C2070      H2075   1.085       .  S
C2071      C2072   1.401       .  A
C2072      N2073   1.437       .  S
N2073      H2077   1.046       .  S
N2073      H2078   1.045       .  S
N2076      H2079   1.046       .  S
N2076      H2080   1.044       .  S
C2081      C2082   1.403       .  A
C2081      C2086   1.404       .  A
C2081      H2088   1.084       .  S
C2082      C2083   1.402       .  A
C2083      C2084   1.383       .  A
C2083      N2090   1.428       .  S
C2084      C2085   1.391       .  A
C2084      H2089   1.075       .  S
C2085      C2086   1.404       .  A
C2086      N2087   1.435       .  S
N2087      H2091   1.046       .  S
N2087      H2092   1.045       .  S
C2095      C2096   1.401       .  A
C2095      C2100   1.406       .  A
C2095      H2102   1.080       .  S
C2096      C2097   1.421       .  A
C2097      C2098   1.412       .  A
C2097      N2104   1.436       .  S
C2098      C2099   1.410       .  A
C2098      H2103   1.083       .  S
C2099      C2100   1.424       .  A
C2100      N2101   1.430       .  S
N2101      H2105   1.043       .  S
N2101      H2106   1.040       .  S
N2104      H2107   1.040       .  S
N2104      H2108   1.044       .  S
C2109      C2110   1.411       .  A
C2109      C2114   1.392       .  A
C2109      H2116   1.078       .  S
C2110      C2111   1.424       .  A
C2111      C2112   1.401       .  A
C2111      N2118   1.432       .  S
C2112      C2113   1.395       .  A
C2112      H2117   1.085       .  S
C2113      C2114   1.396       .  A
C2114      N2115   1.439       .  S
N2115      H2119   1.046       .  S
N2115      H2120   1.045       .  S
N2118      H2121   1.046       .  S
N2118      H2122   1.046       .  S
C2123      C2124   1.404       .  A
C2123      C2128   1.411       .  A
C2123      H2130   1.084       .  S
C2124      C2125   1.415       .  A
C2125      C2126   1.408       .  A
C2125      N2132   1.438       .  S
C2126      C2127   1.405       .  A
C2126      H2131   1.084       .  S
C2127      C2128   1.423       .  A
C2128      N2129   1.433       .  S
N2129      H2133   1.041       .  S
N2129      H2134   1.044       .  S
N2132      H2135   1.046       .  S
N2132      H2136   1.045       .  S
C2137      C2138   1.411       .  A
C2137      C2142   1.400       .  A
C2137      H2144   1.084       .  S
C2138      C2139   1.399       .  A
C2139      C2140   1.407       .  A
C2139      N2146   1.434       .  S
C2140      C2141   1.408       .  A
C2140      H2145   1.078       .  S
C2141      C2142   1.401       .  A
C2142      N2143   1.439       .  S
N2143      H2147   1.046       .  S
N2143      H2148   1.046       .  S
N2146      H2149   1.041       .  S
N2146      H2150   1.045       .  S
C2151      C2152   1.390       .  A
C2151      C2156   1.391       .  A
C2151      H2158   1.085       .  S
C2152      C2153   1.404       .  A
C2153      C2154   1.400       .  A
C2153      N2160   1.438       .  S
C2154      C2155   1.402       .  A
C2154      H2159   1.084       .  S
C2155      C2156   1.416       .  A
C2156      N2157   1.434       .  S
N2157      H2161   1.043       .  S
N2157      H2162   1.042       .  S
N2160      H2163   1.046       .  S
N2160      H2164   1.045       .  S
C2165      C2166   1.406       .  A
C2165      C2170   1.414       .  A
C2165      H2172   1.083       .  S
C2166      C2167   1.415       .  A
C2167      C2168   1.408       .  A
C2167      N2174   1.437       .  S
C2168      C2169   1.409       .  A
C2168      H2173   1.082       .  S
C2169      C2170   1.415       .  A
C2170      N2171   1.428       .  S
N2171      H2175   1.045   1_556  S
N2171      H2176   1.043       .  S
N2174      H2177   1.045       .  S
N2174      H2178   1.046       .  S
C2179      C2180   1.403       .  A
C2179      H2186   1.071       .  S
C2180      C2181   1.424       .  A
C2181      C2182   1.388       .  A
C2181      N2188   1.436       .  S
C2182      C2183   1.390       .  A
C2182      H2187   1.081       .  S
C2184      N2185   1.432       .  S
N2185      H2189   1.046       .  S
N2185      H2190   1.045       .  S
N2188      H2191   1.045       .  S
N2188      H2192   1.043       .  S
