geometry optimzed in LAMMPS
_audit_creation_date              2020-12-01 
_audit_creation_method            'lammps2cif' 
_symmetry_space_group_name_H-M    'P1' 
_symmetry_Int_Tables_number       1 
_symmetry_cell_setting            triclinic 
loop_ 
_symmetry_equiv_pos_as_xyz 
  x,y,z 
_cell_length_a                    31.65318272 
_cell_length_b                    31.9071666633074 
_cell_length_c                    26.854776716341977 
_cell_angle_alpha                 90.21543750815006 
_cell_angle_beta                  89.80955167382868 
_cell_angle_gamma                 122.21582273902357 
loop_ 
_atom_site_label 
_atom_site_type_symbol 
_atom_site_fract_x 
_atom_site_fract_y 
_atom_site_fract_z 
_atom_site_charge 
C1          C  0.21858056  0.38059360  0.53807851     0.02900
C2          C  0.17715136  0.35299971  0.50670973    -0.13200
C3          C  0.16120904  0.37719725  0.47565109     0.00400
C4          C  0.18602140  0.42900112  0.47716017    -0.11800
C5          C  0.22734749  0.45667502  0.50811564     0.02900
C6          C  0.24336965  0.43239049  0.53858891    -0.11200
H7          H  0.15732154  0.31291720  0.50660502     0.08500
H8          H  0.17397508  0.44786938  0.45304634     0.06000
H9          H  0.27435721  0.45382230  0.56383192     0.05900
C10         C  0.42755744  0.16534103  0.96839026     0.02900
C11         C  0.47928771  0.19716395  0.97527546    -0.13200
C12         C  0.50451348  0.18576026  0.01000920     0.00400
C13         C  0.47743973  0.14426248  0.04048949    -0.11800
C14         C  0.42526745  0.11394917  0.03656646     0.02900
C15         C  0.40049427  0.12417326  0.99984498    -0.11200
H16         H  0.50027266  0.22958294  0.95190922     0.08500
H17         H  0.49702944  0.13575023  0.06768876     0.06000
H18         H  0.36057479  0.09941502  0.99483731     0.05900
C19         C  0.22269227  0.38023245  0.97215123     0.02900
C20         C  0.24713153  0.43164418  0.96533303    -0.13200
C21         C  0.23260585  0.45945215  0.99255027     0.00400
C22         C  0.19373439  0.43570386  0.02720009    -0.11800
C23         C  0.17112323  0.38492509  0.03691455     0.02900
C24         C  0.18463732  0.35694159  0.00806215    -0.11200
H25         H  0.27662002  0.44981383  0.93781159     0.08500
H26         H  0.18236595  0.45717911  0.04817552     0.06000
H27         H  0.16634591  0.31741619  0.01412710     0.05900
C28         C  0.72537615  0.18321035  0.46435472     0.02900
C29         C  0.70038791  0.20858933  0.46290822    -0.13200
C30         C  0.65941815  0.19449359  0.49407283     0.00400
C31         C  0.64384011  0.15523483  0.52745012    -0.11800
C32         C  0.66875042  0.12971219  0.52951052     0.02900
C33         C  0.70937517  0.14372874  0.49758395    -0.11200
H34         H  0.71207390  0.23851337  0.43656422     0.08500
H35         H  0.61312970  0.14538655  0.55270217     0.06000
H36         H  0.72867232  0.12409518  0.49874027     0.05900
C37         C  0.73617940  0.19104703  0.02952614     0.02900
C38         C  0.70657144  0.21135732  0.03537478    -0.13200
C39         C  0.66433701  0.19528102  0.00569902     0.00400
C40         C  0.65101939  0.15795265  0.97023992    -0.11800
C41         C  0.68103272  0.13825620  0.96256632     0.02900
C42         C  0.72319443  0.15444117  0.99291414    -0.11200
H43         H  0.71557684  0.23886076  0.06409373     0.08500
H44         H  0.61790467  0.14503515  0.94778233     0.06000
H45         H  0.74595786  0.13869889  0.98795606     0.05900
C46         C  0.63586102  0.21945599  0.01007882     0.80000
N47         N  0.58516544  0.19231412  0.01036233    -0.78300
C48         C  0.55930807  0.21528451  0.01218971     0.82400
N49         N  0.58431998  0.26553277  0.01308123    -0.78300
C50         C  0.63501312  0.29277441  0.01282481     0.82500
N51         N  0.66056757  0.26960742  0.01113746    -0.80000
C52         C  0.67436435  0.42549303  0.03742405     0.02900
C53         C  0.64808613  0.37366559  0.04016661    -0.13200
C54         C  0.66220947  0.34706361  0.01035700     0.00400
C55         C  0.70188539  0.37240858  0.97678611    -0.11800
C56         C  0.72591855  0.42383232  0.97077229     0.02900
C57         C  0.71304848  0.45059028  0.00238032    -0.11200
H58         H  0.61769383  0.35425441  0.06657015     0.08500
H59         H  0.71279334  0.35176947  0.95365592     0.06000
H60         H  0.73228499  0.49049468  0.99916195     0.05900
O61         O  0.90017725  0.28406182  0.30056223    -0.74700
O62         O  0.00711767  0.33213009  0.20674820    -0.74700
O63         O  0.90685494  0.28818052  0.19978746    -0.74700
O64         O  0.99941700  0.32733007  0.30740355    -0.74800
O65         O  0.99172970  0.25368074  0.30502955    -0.74700
O66         O  0.89701007  0.21375943  0.19889887    -0.74700
O67         O  0.99707850  0.25741005  0.20369280    -0.74700
O68         O  0.89160642  0.21005195  0.29994206    -0.74700
Ni69       Ni  0.95374055  0.31055647  0.25358540     1.25400
Ni70       Ni  0.94407898  0.23106538  0.25181028     1.25400
C71         C  0.87879976  0.23946530  0.31638146     0.87500
C72         C  0.01908479  0.30249112  0.18916912     0.87500
C73         C  0.88620770  0.24429719  0.18170897     0.87500
C74         C  0.01005863  0.29667708  0.32456239     0.87700
C75         C  0.15898198  0.61826588  0.53009165     0.02900
C76         C  0.17317715  0.65652167  0.49558316    -0.13200
C77         C  0.21395423  0.67132931  0.46361909     0.00400
C78         C  0.24150591  0.64858982  0.46738519    -0.11800
C79         C  0.22721099  0.60994880  0.50130884     0.02900
C80         C  0.18603273  0.59499264  0.53248380    -0.11200
H81         H  0.15277824  0.67499524  0.49386079     0.08500
H82         H  0.27325436  0.66013451  0.44305514     0.06000
H83         H  0.17601859  0.56621176  0.55985089     0.05900
C84         C  0.25476962  0.58476063  0.50417441     0.80000
N85         N  0.30544226  0.61138818  0.50615431    -0.78300
C86         C  0.33064161  0.58783395  0.50904773     0.82400
N87         N  0.30511452  0.53769146  0.50973112    -0.78300
C88         C  0.25452823  0.51093340  0.50788033     0.82500
N89         N  0.22942045  0.53452123  0.50509761    -0.80000
C90         C  0.46456095  0.63628872  0.47431441     0.02900
C91         C  0.41234069  0.60538924  0.47737577    -0.13200
C92         C  0.38535554  0.61644450  0.51043963     0.00400
C93         C  0.41076707  0.65635007  0.54322359    -0.11800
C94         C  0.46310715  0.68557334  0.54316207     0.02900
C95         C  0.48998924  0.67575345  0.50820182    -0.11200
H96         H  0.39249470  0.57437315  0.45193713     0.08500
H97         H  0.38973585  0.66460280  0.56903797     0.06000
H98         H  0.53025817  0.69994768  0.50600112     0.05900
C99         C  0.42402912  0.17689392  0.51678880     0.02900
C100        C  0.47648717  0.20434343  0.51648641    -0.13200
C101        C  0.50290728  0.19083887  0.48543885     0.00400
C102        C  0.47673001  0.14934470  0.45446688    -0.11800
C103        C  0.42431523  0.12143625  0.45407090     0.02900
C104        C  0.39802549  0.13548928  0.48508606    -0.11200
H105        H  0.49688337  0.23507199  0.54212541     0.08500
H106        H  0.49713724  0.13879821  0.43042038     0.06000
H107        H  0.35755925  0.11363259  0.48538594     0.05900
C108        C  0.63295028  0.22074332  0.49162284     0.80000
N109        N  0.58233153  0.19483819  0.48921235    -0.78300
C110        C  0.55778263  0.21902849  0.48688014     0.82400
N111        N  0.58407379  0.26933434  0.48715436    -0.78300
C112        C  0.63471843  0.29542638  0.48947158     0.82500
N113        N  0.65903770  0.27101395  0.49177050    -0.80000
C114        C  0.67770087  0.42850027  0.46121030     0.02900
C115        C  0.65085647  0.37651517  0.45939856    -0.13200
C116        C  0.66301681  0.34984595  0.49122484     0.00400
C117        C  0.70153596  0.37528237  0.52584633    -0.11800
C118        C  0.72671760  0.42697426  0.53020985     0.02900
C119        C  0.71550844  0.45369922  0.49703127    -0.11200
H120        H  0.62106143  0.35686185  0.43248294     0.08500
H121        H  0.71079536  0.35467921  0.55078491     0.06000
H122        H  0.73510673  0.49366875  0.49993677     0.05900
C123        C  0.17064082  0.62814230  0.95668170     0.02900
C124        C  0.18475560  0.66555012  0.99243707    -0.13200
C125        C  0.22356733  0.67754368  0.02605352     0.00400
C126        C  0.24772455  0.65127931  0.02381740    -0.11800
C127        C  0.23382689  0.61389905  0.98828863     0.02900
C128        C  0.19494324  0.60203438  0.95521887    -0.11200
H129        H  0.16531276  0.68501864  0.99430645     0.08500
H130        H  0.27673057  0.65919588  0.05046203     0.05800
H131        H  0.18409807  0.57302358  0.92776605     0.05900
C132        C  0.26037963  0.58773584  0.98569917     0.80000
N133        N  0.31097838  0.61403569  0.98344437    -0.78300
C134        C  0.33611340  0.59041457  0.98272037     0.82400
N135        N  0.31042482  0.54022114  0.98482427    -0.78300
C136        C  0.25976577  0.51360589  0.98701362     0.82500
N137        N  0.23478534  0.53749060  0.98765098    -0.80000
C138        C  0.46865221  0.63753086  0.02220591     0.02900
C139        C  0.49520381  0.68006429  0.99238875    -0.13200
C140        C  0.46985110  0.69164642  0.95782905     0.00400
C141        C  0.41776261  0.66187222  0.95424597    -0.11800
C142        C  0.39096016  0.61940331  0.98355529     0.02900
C143        C  0.41658441  0.60667488  0.01638763    -0.11200
H144        H  0.53514852  0.70498075  0.99701077     0.08500
H145        H  0.39819672  0.67171850  0.92845143     0.06000
H146        H  0.39561446  0.57396124  0.03939589     0.05900
O147        O  0.59555254  0.86892715  0.69707714    -0.74700
O148        O  0.64555333  0.96922703  0.79876712    -0.74700
O149        O  0.59890475  0.86900327  0.79747318    -0.74700
O150        O  0.64245020  0.96913036  0.69762640    -0.74800
O151        O  0.56818706  0.96130655  0.69975268    -0.74700
O152        O  0.52593680  0.86401484  0.80214585    -0.74700
O153        O  0.57230185  0.96389739  0.80015657    -0.74700
O154        O  0.52162171  0.86167063  0.70163921    -0.74700
Ni155      Ni  0.62333416  0.91939145  0.74763796     1.25400
Ni156      Ni  0.54440706  0.91246725  0.75108206     1.25400
C157        C  0.55012937  0.84867586  0.68275014     0.87500
C158        C  0.61710157  0.98323752  0.81574888     0.87500
C159        C  0.55510452  0.84989437  0.81596847     0.87500
C160        C  0.61246869  0.98159488  0.68203969     0.87700
O161        O  0.56988953  0.49065426  0.29962123    -0.74700
O162        O  0.52283879  0.54159901  0.20053178    -0.74700
O163        O  0.56830203  0.49023113  0.19847225    -0.74700
O164        O  0.52465861  0.54231185  0.30107943    -0.74800
O165        O  0.59903083  0.61326518  0.30032011    -0.74700
O166        O  0.64329311  0.56036897  0.19851621    -0.74700
O167        O  0.59759083  0.61200743  0.19828575    -0.74700
O168        O  0.64425995  0.56130590  0.29957339    -0.74700
Ni169      Ni  0.54385828  0.51371364  0.24996446     1.25400
Ni170      Ni  0.62372755  0.58936950  0.24910035     1.25400
C171        C  0.61431835  0.51763802  0.31668074     0.87500
C172        C  0.55244609  0.58489979  0.18280337     0.87500
C173        C  0.61287571  0.51678915  0.18146969     0.87500
C174        C  0.55471248  0.58607928  0.31779971     0.87700
O175        O  0.32272820  0.84380692  0.20019401    -0.74700
O176        O  0.36746134  0.94588653  0.29865918    -0.74700
O177        O  0.32258810  0.84647777  0.30099441    -0.74700
O178        O  0.36800041  0.94309813  0.19807802    -0.74800
O179        O  0.29382658  0.93533328  0.19577847    -0.74700
O180        O  0.24804999  0.83812766  0.29992704    -0.74700
O181        O  0.29336780  0.93853217  0.29671349    -0.74700
O182        O  0.24832853  0.83554698  0.19875384    -0.74700
Ni183      Ni  0.34776046  0.89507202  0.24956460     1.25400
Ni184      Ni  0.26815647  0.88655090  0.24784374     1.25400
C185        C  0.27827552  0.82304150  0.18284875     0.87500
C186        C  0.33799430  0.95942540  0.31351464     0.87500
C187        C  0.27806616  0.82653505  0.31772946     0.87500
C188        C  0.33856142  0.95478521  0.17937592     0.87700
O189        O  0.99778589  0.59665824  0.69913759    -0.74700
O190        O  0.89848316  0.55360159  0.80202753    -0.74700
O191        O  0.99887896  0.59666034  0.80013021    -0.74700
O192        O  0.89753635  0.55396661  0.70026654    -0.74800
O193        O  0.88756602  0.47919681  0.69953078    -0.74700
O194        O  0.98820520  0.52176682  0.79927743    -0.74700
O195        O  0.88801139  0.47865212  0.80002775    -0.74700
O196        O  0.98754342  0.52197987  0.69869142    -0.74700
Ni197      Ni  0.94846843  0.57793150  0.75044454     1.25400
Ni198      Ni  0.93750491  0.49781141  0.74938399     1.25400
C199        C  0.00907584  0.56629873  0.68200815     0.87500
C200        C  0.87710054  0.50895209  0.81790388     0.87500
C201        C  0.00998565  0.56600746  0.81638367     0.87500
C202        C  0.87638587  0.50970567  0.68323565     0.87700
O203        O  0.24880985  0.24846283  0.70291386    -0.74700
O204        O  0.29548594  0.19440563  0.79945372    -0.74700
O205        O  0.24873561  0.24466596  0.80401645    -0.74700
O206        O  0.29566477  0.19848511  0.69785113    -0.74800
O207        O  0.36868027  0.27056677  0.69871223    -0.74700
O208        O  0.32299119  0.31528522  0.80650242    -0.74700
O209        O  0.36988591  0.26534449  0.79943260    -0.74700
O210        O  0.32209087  0.32020304  0.70561492    -0.74700
Ni211      Ni  0.26953601  0.21889153  0.75102690     1.25400
Ni212      Ni  0.34851240  0.29534951  0.75272217     1.25400
C213        C  0.27786949  0.29309944  0.68806281     0.87500
C214        C  0.34031780  0.22129081  0.81549849     0.87500
C215        C  0.27827489  0.28762395  0.82293087     0.87500
C216        C  0.33956846  0.22744292  0.67999768     0.87700
C217        C  0.52135634  0.73171263  0.88287750    -0.09400
C218        C  0.49710472  0.73494924  0.92509668     0.06800
C219        C  0.49446318  0.77712888  0.93245308    -0.03200
C220        C  0.51444654  0.81469467  0.89684599    -0.07600
C221        C  0.53763688  0.81104906  0.85392549     0.05900
C222        C  0.54155699  0.76937650  0.84720690    -0.02600
Br223      Br  0.56928974  0.75952775  0.78791125    -0.02300
H224        H  0.52267988  0.69887077  0.87666303     0.09800
H225        H  0.51158735  0.84672755  0.90250831     0.07900
Br226      Br  0.46369656  0.78470895  0.99045020    -0.02700
C227        C  0.47072710  0.61617229  0.11037942    -0.09400
C228        C  0.49340365  0.62744236  0.06319791     0.06800
C229        C  0.53747682  0.62701716  0.05645971    -0.03200
C230        C  0.55791887  0.61582984  0.09674460    -0.07600
C231        C  0.53391944  0.60288031  0.14324912     0.05900
C232        C  0.48973084  0.60275400  0.14965412    -0.02600
Br233      Br  0.45289530  0.58370802  0.21080568    -0.02300
H234        H  0.43719098  0.61671948  0.11654159     0.09800
H235        H  0.59106093  0.61449901  0.09100523     0.07900
Br236      Br  0.56818173  0.63580427  0.99240241    -0.02700
C237        C  0.29960022  0.78837550  0.11126773    -0.09400
C238        C  0.26257657  0.78546189  0.14275797     0.06800
C239        C  0.21217631  0.74756311  0.13428026    -0.03200
C240        C  0.20026318  0.71328351  0.09575335    -0.07600
C241        C  0.23753038  0.71597868  0.06486984     0.05900
C242        C  0.28754219  0.75461137  0.07243367    -0.02600
Br243      Br  0.34067750  0.76536777  0.02897082    -0.02300
H244        H  0.33829911  0.81786157  0.11613767     0.09800
H245        H  0.16166592  0.68369792  0.09048098     0.07900
Br246      Br  0.15791138  0.73853589  0.17498627    -0.02700
C247        C  0.08797289  0.56502079  0.92286685    -0.09400
C248        C  0.12877310  0.61407808  0.92229110     0.06800
C249        C  0.12924878  0.64784368  0.88824810    -0.03200
C250        C  0.08957069  0.63177174  0.85490860    -0.07600
C251        C  0.04925718  0.58222108  0.85458593     0.05900
C252        C  0.04830086  0.54892538  0.88977082    -0.02600
Br253      Br  0.99312119  0.48170236  0.89663344    -0.02300
H254        H  0.08692817  0.53903787  0.94948344     0.09800
H255        H  0.09104702  0.65779148  0.82806641     0.07900
Br256      Br  0.18453548  0.71515300  0.88326071    -0.02700
C257        C  0.78822608  0.46026671  0.65721363    -0.09400
C258        C  0.83828368  0.49302491  0.64433934     0.06800
C259        C  0.85135578  0.50640294  0.59416814    -0.03200
C260        C  0.81425594  0.48626163  0.55744880    -0.07600
C261        C  0.76418035  0.45227143  0.57011532     0.05900
C262        C  0.75117054  0.44000042  0.62067603    -0.02600
Br263      Br  0.68337612  0.39611285  0.64200502    -0.02300
H264        H  0.77802355  0.44989655  0.69584775     0.09800
H265        H  0.82476057  0.49555865  0.51871465     0.07900
Br266      Br  0.91967695  0.54894038  0.57395859    -0.02700
C267        C  0.61469049  0.44444738  0.42778439    -0.09400
C268        C  0.66387751  0.45544582  0.42683617     0.06800
C269        C  0.69745329  0.48909191  0.39110233    -0.03200
C270        C  0.68105931  0.51010969  0.35641515    -0.07600
C271        C  0.63126362  0.49773250  0.35627225     0.05900
C272        C  0.59822737  0.46529141  0.39324493    -0.02600
Br273      Br  0.53075033  0.44929027  0.40020337    -0.02300
H274        H  0.58873712  0.41906908  0.45548609     0.09800
H275        H  0.70690889  0.53484647  0.32829860     0.07900
Br276      Br  0.76473838  0.50448563  0.38554844    -0.02700
C277        C  0.38874767  0.24890752  0.60178932    -0.09400
C278        C  0.35704368  0.21230464  0.63618698     0.06800
C279        C  0.34362812  0.16295516  0.62786632    -0.03200
C280        C  0.36389542  0.15175637  0.58726739    -0.07600
C281        C  0.39729622  0.18883553  0.55419790     0.05900
C282        C  0.40839822  0.23757776  0.56091094    -0.02600
Br283      Br  0.44894962  0.28989598  0.51469499    -0.02300
H284        H  0.39826538  0.28671117  0.60662254     0.09800
H285        H  0.35522464  0.11420805  0.58280051     0.07900
Br286      Br  0.30138337  0.10992223  0.67255787    -0.02700
C287        C  0.38474579  0.99954456  0.39086325    -0.09400
C288        C  0.35611942  0.99937321  0.35102419     0.06800
C289        C  0.34708087  0.03808301  0.34724355    -0.03200
C290        C  0.36794533  0.07671913  0.38227528    -0.07600
C291        C  0.39774182  0.07742045  0.42126024     0.05900
C292        C  0.40495999  0.03771476  0.42605860    -0.02600
Br293      Br  0.44075019  0.03308203  0.48100883    -0.02300
H294        H  0.39127605  0.96965950  0.39477133     0.09800
H295        H  0.36242670  0.10723192  0.37803350     0.07900
Br296      Br  0.31048612  0.04250318  0.29279599    -0.02700
C297        C  0.47358710  0.76297285  0.57652929    -0.09400
C298        C  0.48850206  0.72873026  0.57707733     0.06800
C299        C  0.52482383  0.73496881  0.61165021    -0.03200
C300        C  0.54577528  0.77532385  0.64451403    -0.07600
C301        C  0.52990696  0.80893885  0.64477730     0.05900
C302        C  0.49345148  0.80248599  0.61006984    -0.02600
Br303      Br  0.46987362  0.84673098  0.60516496    -0.02300
H304        H  0.44575315  0.75860659  0.54999743     0.09800
H305        H  0.57315202  0.77927421  0.67137195     0.07900
Br306      Br  0.54354839  0.68713939  0.61880740    -0.02700
C307        C  0.53079561  0.62168453  0.44476577    -0.09400
C308        C  0.49159253  0.62868014  0.43363935     0.06800
C309        C  0.47734318  0.62652122  0.38345918    -0.03200
C310        C  0.49976261  0.61426001  0.34625788    -0.07600
C311        C  0.53709662  0.60499885  0.35750450     0.05900
C312        C  0.55364010  0.60996566  0.40701793    -0.02600
Br313      Br  0.60503068  0.59814949  0.42484822    -0.02300
H314        H  0.54251101  0.62370963  0.48306461     0.09800
H315        H  0.48771253  0.61168479  0.30816793     0.07900
Br316      Br  0.42856253  0.64134844  0.36302162    -0.02700
C317        C  0.21256362  0.74644571  0.35481120    -0.09400
C318        C  0.26102270  0.78873224  0.35724248     0.06800
C319        C  0.29311015  0.79275566  0.39595842    -0.03200
C320        C  0.27693475  0.75424761  0.43025339    -0.07600
C321        C  0.22888998  0.71158345  0.42719547     0.05900
C322        C  0.19642898  0.70791731  0.38918976    -0.02600
Br323      Br  0.13111611  0.64973607  0.38036574    -0.02300
H324        H  0.18770415  0.74257162  0.32503315     0.09800
H325        H  0.30189680  0.75773700  0.45974798     0.07900
Br326      Br  0.35841354  0.85085120  0.40569440    -0.02700
C327        C  0.04297754  0.54450253  0.60999523    -0.09400
C328        C  0.04663724  0.58143055  0.64179070     0.06800
C329        C  0.08640364  0.63098330  0.63474765    -0.03200
C330        C  0.12149910  0.64227032  0.59702011    -0.07600
C331        C  0.11835388  0.60506074  0.56623291     0.05900
C332        C  0.07822198  0.55580384  0.57259129    -0.02600
Br333      Br  0.06868321  0.50259242  0.53050760    -0.02300
H334        H  0.01238500  0.50639560  0.61415529     0.09800
H335        H  0.15257177  0.68016724  0.59287421     0.07900
Br336      Br  0.09782957  0.68447698  0.67745822    -0.02700
C337        C  0.78984453  0.45294119  0.84461673    -0.09400
C338        C  0.83842562  0.49112906  0.85668094     0.06800
C339        C  0.84956576  0.50904049  0.90592656    -0.03200
C340        C  0.81220175  0.48783580  0.94255841    -0.07600
C341        C  0.76365619  0.44870901  0.93072292     0.05900
C342        C  0.75242249  0.43207255  0.88084836    -0.02600
Br343      Br  0.68632763  0.38214065  0.85941095    -0.02300
H344        H  0.78097965  0.43923366  0.80666895     0.09800
H345        H  0.82147735  0.50078749  0.98068657     0.07900
Br346      Br  0.91600457  0.55956345  0.92536916    -0.02700
C347        C  0.61672083  0.45159866  0.06474133    -0.09400
C348        C  0.66122318  0.45284145  0.07199093     0.06800
C349        C  0.69058571  0.47685911  0.11425888    -0.03200
C350        C  0.67496551  0.49880581  0.14882100    -0.07600
C351        C  0.62977727  0.49645517  0.14233804     0.05900
C352        C  0.60092417  0.47333448  0.09941391    -0.02600
Br353      Br  0.54094587  0.47232894  0.08539746    -0.02300
H354        H  0.59399920  0.43324658  0.03220840     0.09800
H355        H  0.69731697  0.51625068  0.18179110     0.07900
Br356      Br  0.75045772  0.47762929  0.12788041    -0.02700
C357        C  0.77875986  0.16787610  0.09102960    -0.09400
C358        C  0.77800256  0.20526220  0.06451514     0.06800
C359        C  0.81481879  0.25518245  0.07478298    -0.03200
C360        C  0.84990212  0.26670119  0.11237380    -0.07600
C361        C  0.84965177  0.22937247  0.14037798     0.05900
C362        C  0.81385326  0.17925395  0.12861776    -0.02600
Br363      Br  0.80767087  0.12396977  0.16391299    -0.02300
H364        H  0.75051478  0.12939336  0.08378234     0.09800
H365        H  0.87755825  0.30532155  0.11973800     0.07900
Br366      Br  0.82022198  0.30928757  0.03779625    -0.02700
C367        C  0.64295849  0.06858963  0.83915422    -0.09400
C368        C  0.63614803  0.02311360  0.85302095     0.06800
C369        C  0.64546125  0.01599414  0.90246517    -0.03200
C370        C  0.66112961  0.05424517  0.93738762    -0.07600
C371        C  0.66736661  0.09974978  0.92381417     0.05900
C372        C  0.65878024  0.10693309  0.87383876    -0.02600
Br373      Br  0.66996310  0.16877536  0.85005422    -0.02300
H374        H  0.63607206  0.07433246  0.80103969     0.09800
H375        H  0.66708783  0.04794474  0.97561598     0.07900
Br376      Br  0.63390182  0.95359957  0.92455457    -0.02700
C377        C  0.76184635  0.16141590  0.39456262    -0.09400
C378        C  0.76668585  0.19666107  0.42930908     0.06800
C379        C  0.80944344  0.24486468  0.42811232    -0.03200
C380        C  0.84533264  0.25770587  0.39107906    -0.07600
C381        C  0.84006434  0.22296033  0.35532721     0.05900
C382        C  0.79807395  0.17406894  0.35772796    -0.02600
Br383      Br  0.78581399  0.12402213  0.30980176    -0.02300
H384        H  0.72889473  0.12428065  0.39512289     0.09800
H385        H  0.87774011  0.29512795  0.39041745     0.07900
Br386      Br  0.82147164  0.29394911  0.47721543    -0.02700
C387        C  0.69060051  0.09435936  0.59980579    -0.09400
C388        C  0.65423551  0.09033116  0.56691808     0.06800
C389        C  0.60473562  0.04968061  0.57132509    -0.03200
C390        C  0.59216625  0.01491160  0.60904505    -0.07600
C391        C  0.62832542  0.01921156  0.64247477     0.05900
C392        C  0.67820286  0.05936395  0.63734657    -0.02600
Br393      Br  0.73055266  0.07079343  0.68210909    -0.02300
H394        H  0.72874275  0.12565910  0.59701440     0.09800
H395        H  0.55390020  0.98383964  0.61176961     0.07900
Br396      Br  0.55342249  0.03809292  0.52523305    -0.02700
C397        C  0.10581142  0.36204360  0.16193935    -0.09400
C398        C  0.05848349  0.32076403  0.15111809     0.06800
C399        C  0.04898337  0.29898703  0.10348531    -0.03200
C400        C  0.08635453  0.31961200  0.06696082    -0.07600
C401        C  0.13355870  0.36167774  0.07735254     0.05900
C402        C  0.14353313  0.38204781  0.12590781    -0.02600
Br403      Br  0.20855845  0.43542153  0.14614220    -0.02300
H404        H  0.11358864  0.37846500  0.19876270     0.09800
H405        H  0.07808040  0.30360216  0.02995670     0.07900
Br406      Br  0.98448195  0.24339759  0.08557223    -0.02700
C407        C  0.19907992  0.31617910  0.90679731    -0.09400
C408        C  0.23545459  0.35113519  0.93937296     0.06800
C409        C  0.28447404  0.36130681  0.93640110    -0.03200
C410        C  0.29712072  0.33920401  0.89905342    -0.07600
C411        C  0.26142941  0.30614246  0.86450121     0.05900
C412        C  0.21147374  0.29355149  0.86967742    -0.02600
Br413      Br  0.15898431  0.24915476  0.82530080    -0.02300
H414        H  0.16125057  0.30811029  0.90880746     0.09800
H415        H  0.33528546  0.34827799  0.89680814     0.07900
Br416      Br  0.33520314  0.40450498  0.98301596    -0.02700
C417        C  0.36058146  0.17804655  0.93879591    -0.09400
C418        C  0.40230746  0.17501265  0.92777620     0.06800
C419        C  0.42035697  0.18301563  0.87831455    -0.03200
C420        C  0.39898819  0.19720837  0.84196582    -0.07600
C421        C  0.35855757  0.20187848  0.85350017     0.05900
C422        C  0.33850165  0.19114173  0.90196737    -0.02600
Br423      Br  0.28345652  0.19743159  0.92030306    -0.02300
H424        H  0.34612207  0.17173676  0.97645194     0.09800
H425        H  0.41393130  0.20457126  0.80445724     0.07900
Br426      Br  0.47243684  0.17292701  0.85747899    -0.02700
C427        C  0.41464492  0.03725004  0.07131015    -0.09400
C428        C  0.39807752  0.07010662  0.06926266     0.06800
C429        C  0.35915511  0.06256168  0.10119001    -0.03200
C430        C  0.33868565  0.02340524  0.13533286    -0.07600
C431        C  0.35711699  0.99202568  0.13908314     0.05900
C432        C  0.39494354  0.99874579  0.10578640    -0.02600
Br433      Br  0.42154480  0.95684230  0.10445252    -0.02300
H434        H  0.44409552  0.04231719  0.04650104     0.09800
H435        H  0.30991415  0.01901717  0.16071186     0.07900
Br436      Br  0.33597848  0.10721469  0.10336049    -0.02700
C437        C  0.07945395  0.35772254  0.44378459    -0.09400
C438        C  0.11869490  0.34944987  0.44126039     0.06800
C439        C  0.11913596  0.31953181  0.40272025    -0.03200
C440        C  0.08185723  0.30049982  0.36628379    -0.07600
C441        C  0.04454605  0.31163511  0.36704479     0.05900
C442        C  0.04260709  0.33923312  0.40716861    -0.02600
Br443      Br  0.99042903  0.35248028  0.41455142    -0.02300
H444        H  0.07837056  0.38005385  0.47368863     0.09800
H445        H  0.08363708  0.27920860  0.33572373     0.07900
Br446      Br  0.17234324  0.30787896  0.39482349    -0.02700
C447        C  0.29710159  0.34813606  0.61551414    -0.09400
C448        C  0.26128071  0.31350730  0.64888836     0.06800
C449        C  0.21089634  0.29899445  0.64332144    -0.03200
C450        C  0.19768267  0.32017148  0.60592001    -0.07600
C451        C  0.23368365  0.35557978  0.57341202     0.05900
C452        C  0.28372577  0.36881911  0.57774771    -0.02600
Br453      Br  0.33493875  0.41311019  0.53195190    -0.02300
H454        H  0.33572160  0.35872758  0.61833928     0.09800
H455        H  0.15920817  0.31006523  0.60321876     0.07900
Br456      Br  0.15861377  0.25317292  0.68710950    -0.02700
loop_ 
_geom_bond_atom_site_label_1 
_geom_bond_atom_site_label_2 
_geom_bond_distance 
_geom_bond_site_symmetry_2 
_ccdc_geom_bond_type 
C1            C2   1.405       .  A
C1            C6   1.402       .  A
C1          C451   1.477       .  S
C2            C3   1.403       .  A
C2            H7   1.083       .  S
C3            C4   1.402       .  A
C3          C438   1.476       .  S
C4            C5   1.397       .  A
C4            H8   1.085       .  S
C5            C6   1.398       .  A
C5           C88   1.466       .  S
C6            H9   1.084       .  S
C10          C11   1.405       .  A
C10          C15   1.406       .  A
C10         C418   1.482       .  S
C11          C12   1.399   1_556  A
C11          H16   1.084       .  S
C12          C13   1.397       .  A
C12          C48   1.469       .  S
C13          C14   1.404       .  A
C13          H17   1.084       .  S
C14          C15   1.405   1_554  A
C14         C428   1.480       .  S
C15          H18   1.084       .  S
C19          C20   1.404       .  A
C19          C24   1.406   1_556  A
C19         C408   1.480       .  S
C20          C21   1.400       .  A
C20          H25   1.084       .  S
C21          C22   1.399   1_556  A
C21         C136   1.471       .  S
C22          C23   1.404       .  A
C22          H26   1.084       .  S
C23          C24   1.407       .  A
C23         C401   1.483       .  S
C24          H27   1.084       .  S
C28          C29   1.402       .  A
C28          C33   1.402       .  A
C28         C378   1.475       .  S
C29          C30   1.399       .  A
C29          H34   1.084       .  S
C30          C31   1.401       .  A
C30         C108   1.469       .  S
C31          C32   1.405       .  A
C31          H35   1.084       .  S
C32          C33   1.404       .  A
C32         C388   1.480       .  S
C33          H36   1.084       .  S
C37          C38   1.403       .  A
C37          C42   1.408   1_554  A
C37         C358   1.485       .  S
C38          C39   1.399       .  A
C38          H43   1.084       .  S
C39          C40   1.401   1_554  A
C39          C46   1.470       .  S
C40          C41   1.405       .  A
C40          H44   1.084       .  S
C41          C42   1.408       .  A
C41         C371   1.485       .  S
C42          H45   1.083       .  S
C46          N47   1.358       .  A
C46          N51   1.356       .  A
N47          C48   1.360       .  A
C48          N49   1.358       .  A
N49          C50   1.358       .  A
C50          C54   1.469       .  S
C50          N51   1.356       .  A
C52          C53   1.402       .  A
C52          C57   1.407       .  A
C52         C348   1.475       .  S
C53          C54   1.399       .  A
C53          H58   1.084       .  S
C54          C55   1.400   1_554  A
C55          C56   1.403       .  A
C55          H59   1.085       .  S
C56          C57   1.407   1_556  A
C56         C341   1.483       .  S
C57          H60   1.083   1_554  S
O61         Ni69   1.910       .  S
O61          C71   1.280       .  A
O62         Ni69   1.914   1_455  S
O62          C72   1.280       .  A
O63         Ni69   1.917       .  S
O63          C73   1.282       .  A
O64         Ni69   1.910       .  S
O64          C74   1.280   1_655  A
O65         Ni70   1.919       .  S
O65          C74   1.281   1_655  A
O66         Ni70   1.917       .  S
O66          C73   1.280       .  A
O67         Ni70   1.919       .  S
O67          C72   1.281   1_655  A
O68         Ni70   1.919       .  S
O68          C71   1.281       .  A
Ni69        Ni70   2.388       .  S
C71         C381   1.477       .  S
C72         C398   1.470       .  S
C73         C361   1.488       .  S
C74         C441   1.473       .  S
C75          C76   1.404       .  A
C75          C80   1.403       .  A
C75         C331   1.480       .  S
C76          C77   1.404       .  A
C76          H81   1.083       .  S
C77          C78   1.405       .  A
C77         C321   1.479       .  S
C78          C79   1.402       .  A
C78          H82   1.084       .  S
C79          C80   1.400       .  A
C79          C84   1.470       .  S
C80          H83   1.085       .  S
C84          N85   1.358       .  A
C84          N89   1.358       .  A
N85          C86   1.359       .  A
C86          C92   1.466       .  S
C86          N87   1.355       .  A
N87          C88   1.356       .  A
C88          N89   1.357       .  A
C90          C91   1.405       .  A
C90          C95   1.406       .  A
C90         C308   1.482       .  S
C91          C92   1.399       .  A
C91          H96   1.084       .  S
C92          C93   1.396       .  A
C93          C94   1.403       .  A
C93          H97   1.084       .  S
C94          C95   1.407       .  A
C94         C298   1.479       .  S
C95          H98   1.084       .  S
C99         C100   1.405       .  A
C99         C104   1.409       .  A
C99         C281   1.485       .  S
C100        C101   1.399       .  A
C100        H105   1.084       .  S
C101        C102   1.399       .  A
C101        C110   1.470       .  S
C102        C103   1.404       .  A
C102        H106   1.084       .  S
C103        C104   1.406       .  A
C103        C291   1.481       .  S
C104        H107   1.084       .  S
C108        N109   1.358       .  A
C108        N113   1.357       .  A
N109        C110   1.358       .  A
C110        N111   1.358       .  A
N111        C112   1.358       .  A
C112        C116   1.470       .  S
C112        N113   1.358       .  A
C114        C115   1.404       .  A
C114        C119   1.407       .  A
C114        C268   1.481       .  S
C115        C116   1.400       .  A
C115        H120   1.084       .  S
C116        C117   1.399       .  A
C117        C118   1.402       .  A
C117        H121   1.085       .  S
C118        C119   1.406       .  A
C118        C261   1.479       .  S
C119        H122   1.083       .  S
C123        C124   1.404       .  A
C123        C128   1.404       .  A
C123        C248   1.477       .  S
C124        C125   1.405   1_556  A
C124        H129   1.084       .  S
C125        C126   1.405       .  A
C125        C241   1.484       .  S
C126        C127   1.400   1_554  A
C126        H130   1.084       .  S
C127        C128   1.398       .  A
C127        C132   1.468       .  S
C128        H131   1.084       .  S
C132        N133   1.356       .  A
C132        N137   1.358       .  A
N133        C134   1.357       .  A
C134        C142   1.469       .  S
C134        N135   1.357       .  A
N135        C136   1.358       .  A
C136        N137   1.360       .  A
C138        C139   1.406   1_554  A
C138        C143   1.407       .  A
C138        C228   1.485       .  S
C139        C140   1.402       .  A
C139        H144   1.084       .  S
C140        C141   1.400       .  A
C140        C218   1.469       .  S
C141        C142   1.398       .  A
C141        H145   1.084       .  S
C142        C143   1.400   1_556  A
C143        H146   1.084       .  S
O147       Ni155   1.921       .  S
O147        C157   1.282       .  A
O148       Ni155   1.925       .  S
O148        C158   1.282       .  A
O149       Ni155   1.912       .  S
O149        C159   1.279       .  A
O150       Ni155   1.917       .  S
O150        C160   1.281       .  A
O151       Ni156   1.911       .  S
O151        C160   1.281       .  A
O152       Ni156   1.913       .  S
O152        C159   1.281       .  A
O153       Ni156   1.912       .  S
O153        C158   1.279       .  A
O154       Ni156   1.912       .  S
O154        C157   1.280       .  A
Ni155      Ni156   2.389       .  S
C157        C301   1.479       .  S
C158        C368   1.470   1_565  S
C159        C221   1.468       .  S
C160        C391   1.478   1_565  S
O161       Ni169   1.913       .  S
O161        C171   1.280       .  A
O162       Ni169   1.909       .  S
O162        C172   1.279       .  A
O163       Ni169   1.917       .  S
O163        C173   1.281       .  A
O164       Ni169   1.914       .  S
O164        C174   1.280       .  A
O165       Ni170   1.925       .  S
O165        C174   1.281       .  A
O166       Ni170   1.919       .  S
O166        C173   1.281       .  A
O167       Ni170   1.929       .  S
O167        C172   1.283       .  A
O168       Ni170   1.923       .  S
O168        C171   1.282       .  A
Ni169      Ni170   2.390       .  S
C171        C271   1.481       .  S
C172        C231   1.473       .  S
C173        C351   1.474       .  S
C174        C311   1.470       .  S
O175       Ni183   1.916       .  S
O175        C185   1.282       .  A
O176       Ni183   1.915       .  S
O176        C186   1.281       .  A
O177       Ni183   1.907       .  S
O177        C187   1.279       .  A
O178       Ni183   1.906       .  S
O178        C188   1.279       .  A
O179       Ni184   1.923       .  S
O179        C188   1.283       .  A
O180       Ni184   1.926       .  S
O180        C187   1.283       .  A
O181       Ni184   1.921       .  S
O181        C186   1.281       .  A
O182       Ni184   1.918       .  S
O182        C185   1.280       .  A
Ni183      Ni184   2.386       .  S
C185        C238   1.484       .  S
C186        C288   1.477       .  S
C187        C318   1.478       .  S
C188        C431   1.480       .  S
O189       Ni197   1.921       .  S
O189        C199   1.282   1_655  A
O190       Ni197   1.926       .  S
O190        C200   1.282       .  A
O191       Ni197   1.917       .  S
O191        C201   1.281   1_655  A
O192       Ni197   1.921       .  S
O192        C202   1.281       .  A
O193       Ni198   1.911       .  S
O193        C202   1.279       .  A
O194       Ni198   1.911       .  S
O194        C201   1.280   1_655  A
O195       Ni198   1.910       .  S
O195        C200   1.279       .  A
O196       Ni198   1.910       .  S
O196        C199   1.281   1_655  A
Ni197      Ni198   2.390       .  S
C199        C328   1.482       .  S
C200        C338   1.470       .  S
C201        C251   1.478       .  S
C202        C258   1.466       .  S
O203       Ni211   1.914       .  S
O203        C213   1.280       .  A
O204       Ni211   1.917       .  S
O204        C214   1.280       .  A
O205       Ni211   1.923       .  S
O205        C215   1.282       .  A
O206       Ni211   1.925       .  S
O206        C216   1.282       .  A
O207       Ni212   1.913       .  S
O207        C216   1.281       .  A
O208       Ni212   1.917       .  S
O208        C215   1.282       .  A
O209       Ni212   1.911       .  S
O209        C214   1.279       .  A
O210       Ni212   1.911       .  S
O210        C213   1.281       .  A
Ni211      Ni212   2.388       .  S
C213        C448   1.476       .  S
C214        C421   1.466       .  S
C215        C411   1.486       .  S
C216        C278   1.483       .  S
C217        C218   1.401       .  A
C217        C222   1.399       .  A
C217        H224   1.083       .  S
C218        C219   1.405       .  A
C219        C220   1.395       .  A
C219       Br226   1.916       .  S
C220        C221   1.402       .  A
C220        H225   1.083       .  S
C221        C222   1.411       .  A
C222       Br223   1.920       .  S
C227        C228   1.404       .  A
C227        C232   1.393       .  A
C227        H234   1.083       .  S
C228        C229   1.413       .  A
C229        C230   1.404       .  A
C229       Br236   1.919   1_554  S
C230        C231   1.404       .  A
C230        H235   1.083       .  S
C231        C232   1.407       .  A
C232       Br233   1.914       .  S
C237        C238   1.405       .  A
C237        C242   1.396       .  A
C237        H244   1.084       .  S
C238        C239   1.415       .  A
C239        C240   1.401       .  A
C239       Br246   1.921       .  S
C240        C241   1.405       .  A
C240        H245   1.084       .  S
C241        C242   1.409       .  A
C242       Br243   1.919       .  S
C247        C248   1.401       .  A
C247        C252   1.395       .  A
C247        H254   1.084       .  S
C248        C249   1.410       .  A
C249        C250   1.400       .  A
C249       Br256   1.920       .  S
C250        C251   1.406       .  A
C250        H255   1.083       .  S
C251        C252   1.413       .  A
C252       Br253   1.921   1_455  S
C257        C258   1.399       .  A
C257        C262   1.397       .  A
C257        H264   1.085       .  S
C258        C259   1.407       .  A
C259        C260   1.401       .  A
C259       Br266   1.919       .  S
C260        C261   1.404       .  A
C260        H265   1.084       .  S
C261        C262   1.412       .  A
C262       Br263   1.920       .  S
C267        C268   1.402       .  A
C267        C272   1.397       .  A
C267        H274   1.084       .  S
C268        C269   1.410       .  A
C269        C270   1.402       .  A
C269       Br276   1.919       .  S
C270        C271   1.406       .  A
C270        H275   1.084       .  S
C271        C272   1.413       .  A
C272       Br273   1.922       .  S
C277        C278   1.406       .  A
C277        C282   1.398       .  A
C277        H284   1.084       .  S
C278        C279   1.412       .  A
C279        C280   1.402       .  A
C279       Br286   1.919       .  S
C280        C281   1.405       .  A
C280        H285   1.083       .  S
C281        C282   1.411       .  A
C282       Br283   1.922       .  S
C287        C288   1.402       .  A
C287        C292   1.397   1_565  A
C287        H294   1.084       .  S
C288        C289   1.413   1_565  A
C289        C290   1.403       .  A
C289       Br296   1.920       .  S
C290        C291   1.404       .  A
C290        H295   1.083       .  S
C291        C292   1.409       .  A
C292       Br293   1.917       .  S
C297        C298   1.402       .  A
C297        C302   1.395       .  A
C297        H304   1.084       .  S
C298        C299   1.409       .  A
C299        C300   1.401       .  A
C299       Br306   1.920       .  S
C300        C301   1.406       .  A
C300        H305   1.084       .  S
C301        C302   1.412       .  A
C302       Br303   1.922       .  S
C307        C308   1.406       .  A
C307        C312   1.404       .  A
C307        H314   1.084       .  S
C308        C309   1.412       .  A
C309        C310   1.394       .  A
C309       Br316   1.922       .  S
C310        C311   1.397       .  A
C310        H315   1.080       .  S
C311        C312   1.408       .  A
C312       Br313   1.918       .  S
C317        C318   1.404       .  A
C317        C322   1.400       .  A
C317        H324   1.083       .  S
C318        C319   1.413       .  A
C319        C320   1.398       .  A
C319       Br326   1.921       .  S
C320        C321   1.402       .  A
C320        H325   1.083       .  S
C321        C322   1.410       .  A
C322       Br323   1.919       .  S
C327        C328   1.407       .  A
C327        C332   1.396       .  A
C327        H334   1.083       .  S
C328        C329   1.414       .  A
C329        C330   1.400       .  A
C329       Br336   1.921       .  S
C330        C331   1.404       .  A
C330        H335   1.084       .  S
C331        C332   1.409       .  A
C332       Br333   1.922       .  S
C337        C338   1.399       .  A
C337        C342   1.396       .  A
C337        H344   1.085       .  S
C338        C339   1.408       .  A
C339        C340   1.403       .  A
C339       Br346   1.918       .  S
C340        C341   1.406       .  A
C340        H345   1.084       .  S
C341        C342   1.414       .  A
C342       Br343   1.922       .  S
C347        C348   1.402       .  A
C347        C352   1.400       .  A
C347        H354   1.084       .  S
C348        C349   1.407       .  A
C349        C350   1.399       .  A
C349       Br356   1.919       .  S
C350        C351   1.403       .  A
C350        H355   1.084       .  S
C351        C352   1.410       .  A
C352       Br353   1.920       .  S
C357        C358   1.403       .  A
C357        C362   1.400       .  A
C357        H364   1.083       .  S
C358        C359   1.411       .  A
C359        C360   1.399       .  A
C359       Br366   1.922       .  S
C360        C361   1.407       .  A
C360        H365   1.083       .  S
C361        C362   1.417       .  A
C362       Br363   1.921       .  S
C367        C368   1.400       .  A
C367        C372   1.399       .  A
C367        H374   1.084       .  S
C368        C369   1.406       .  A
C369        C370   1.401       .  A
C369       Br376   1.918   1_545  S
C370        C371   1.406       .  A
C370        H375   1.083       .  S
C371        C372   1.414       .  A
C372       Br373   1.921       .  S
C377        C378   1.403       .  A
C377        C382   1.399       .  A
C377        H384   1.084       .  S
C378        C379   1.407       .  A
C379        C380   1.395       .  A
C379       Br386   1.921       .  S
C380        C381   1.405       .  A
C380        H385   1.083       .  S
C381        C382   1.412       .  A
C382       Br383   1.919       .  S
C387        C388   1.403       .  A
C387        C392   1.399       .  A
C387        H394   1.084       .  S
C388        C389   1.409       .  A
C389        C390   1.397       .  A
C389       Br396   1.917       .  S
C390        C391   1.405       .  A
C390        H395   1.084   1_545  S
C391        C392   1.413       .  A
C392       Br393   1.921       .  S
C397        C398   1.400       .  A
C397        C402   1.398       .  A
C397        H404   1.083       .  S
C398        C399   1.408       .  A
C399        C400   1.401       .  A
C399       Br406   1.920   1_455  S
C400        C401   1.405       .  A
C400        H405   1.083       .  S
C401        C402   1.414       .  A
C402       Br403   1.922       .  S
C407        C408   1.402       .  A
C407        C412   1.401       .  A
C407        H414   1.084       .  S
C408        C409   1.408       .  A
C409        C410   1.399       .  A
C409       Br416   1.920       .  S
C410        C411   1.407       .  A
C410        H415   1.083       .  S
C411        C412   1.415       .  A
C412       Br413   1.918       .  S
C417        C418   1.405       .  A
C417        C422   1.400       .  A
C417        H424   1.083       .  S
C418        C419   1.413       .  A
C419        C420   1.396       .  A
C419       Br426   1.922       .  S
C420        C421   1.399       .  A
C420        H425   1.083       .  S
C421        C422   1.407       .  A
C422       Br423   1.920       .  S
C427        C428   1.401       .  A
C427        C432   1.394   1_545  A
C427        H434   1.084       .  S
C428        C429   1.410       .  A
C429        C430   1.401       .  A
C429       Br436   1.920       .  S
C430        C431   1.406   1_545  A
C430        H435   1.084       .  S
C431        C432   1.414       .  A
C432       Br433   1.923       .  S
C437        C438   1.402       .  A
C437        C442   1.395       .  A
C437        H444   1.084       .  S
C438        C439   1.410       .  A
C439        C440   1.399       .  A
C439       Br446   1.919       .  S
C440        C441   1.403       .  A
C440        H445   1.084       .  S
C441        C442   1.411       .  A
C442       Br443   1.920   1_455  S
C447        C448   1.405       .  A
C447        C452   1.396       .  A
C447        H454   1.084       .  S
C448        C449   1.412       .  A
C449        C450   1.396       .  A
C449       Br456   1.918       .  S
C450        C451   1.402       .  A
C450        H455   1.084       .  S
C451        C452   1.410       .  A
C452       Br453   1.922       .  S
