geometry optimzed in LAMMPS
_audit_creation_date              2020-11-30 
_audit_creation_method            'lammps2cif' 
_symmetry_space_group_name_H-M    'P1' 
_symmetry_Int_Tables_number       1 
_symmetry_cell_setting            triclinic 
loop_ 
_symmetry_equiv_pos_as_xyz 
  x,y,z 
_cell_length_a                    51.56007457751668 
_cell_length_b                    51.923754358405425 
_cell_length_c                    112.78119611289553 
_cell_angle_alpha                 90.00144256596154 
_cell_angle_beta                  90.12436215217862 
_cell_angle_gamma                 121.46082130693331 
loop_ 
_atom_site_label 
_atom_site_type_symbol 
_atom_site_fract_x 
_atom_site_fract_y 
_atom_site_fract_z 
_atom_site_charge 
N1          N  0.94396531  0.97910657  0.87352880    -0.25720
N2          N  0.95118696  0.95813085  0.87325450    -0.33580
C3          C  0.92558962  0.93073132  0.87318851     0.02620
C4          C  0.90127650  0.93482604  0.87348348     0.08640
C5          C  0.91351703  0.96561460  0.87364372    -0.04460
H6          H  0.92481689  0.90951175  0.87288973     0.09310
H7          H  0.90129451  0.97736228  0.87377911     0.10510
Cu8        Cu  0.99531559  0.96754837  0.87307291     0.44170
Cu9        Cu  0.97579767  0.02497407  0.87385421     0.41990
Cu10       Cu  0.05494290  0.04640102  0.87383586     0.43880
N11         N  0.04105404  0.98245436  0.87345699    -0.33110
N12         N  0.06295164  0.01125739  0.87369971    -0.27370
C13         C  0.09001603  0.01322226  0.87393046    -0.03470
C14         C  0.08463313  0.98427688  0.87389409     0.08750
C15         C  0.05351496  0.96529769  0.87353363     0.02550
H16         H  0.11185996  0.03411409  0.87403538     0.10200
H17         H  0.04083097  0.94087146  0.87325047     0.09280
N18         N  0.04074735  0.07702973  0.87476643    -0.34560
N19         N  0.01187367  0.06921887  0.87478622    -0.26740
C20         C  0.01038103  0.09426253  0.87559866    -0.01980
C21         C  0.03968263  0.11880609  0.87616796     0.06630
C22         C  0.05841259  0.10725419  0.87556650     0.04720
H23         H  0.98953925  0.09452307  0.87570752     0.09830
H24         H  0.08301604  0.11981977  0.87564900     0.08660
N25         N  0.20255601  0.88517900  0.83357531    -0.25720
N26         N  0.17637982  0.88390658  0.83460176    -0.33580
C27         C  0.15796976  0.86812352  0.82557163     0.02620
C28         C  0.17291636  0.85871029  0.81838675     0.08640
C29         C  0.20128230  0.86985179  0.82369442    -0.04460
H30         H  0.13527551  0.86397520  0.82430459     0.09310
H31         H  0.21960005  0.86718875  0.82062537     0.10510
Cu32       Cu  0.16587417  0.90402593  0.84771637     0.44170
Cu33       Cu  0.23795164  0.90828289  0.84598663     0.41990
Cu34       Cu  0.21795724  0.94305529  0.87045072     0.43880
N35         N  0.15880717  0.92847988  0.86006175    -0.33110
N36         N  0.17835416  0.94369423  0.86863861    -0.27370
C37         C  0.16854483  0.95935476  0.87469337    -0.03470
C38         C  0.14154732  0.95332304  0.86957146     0.08750
C39         C  0.13602368  0.93378449  0.86034931     0.02550
H40         H  0.18056066  0.97455323  0.88198657     0.10200
H41         H  0.11742560  0.92487688  0.85405294     0.09280
N42         N  0.25765548  0.94230007  0.86951085    -0.34560
N43         N  0.26602315  0.93159438  0.86060106    -0.26740
C44         C  0.29461132  0.93806132  0.86273148    -0.01980
C45         C  0.30417355  0.95282570  0.87355866     0.06630
C46         C  0.28016185  0.95507298  0.87755937     0.04720
H47         H  0.30751686  0.93250629  0.85682975     0.09830
H48         H  0.27956669  0.96643683  0.88550349     0.08660
N49         N  0.12909330  0.33793814  0.83846713    -0.25720
N50         N  0.13416965  0.31562073  0.83954154    -0.33580
C51         C  0.14764008  0.31375725  0.82970909     0.02620
C52         C  0.15132217  0.33608274  0.82199441     0.08640
C53         C  0.13945372  0.35111903  0.82783834    -0.04460
H54         H  0.15339165  0.29674690  0.82825195     0.09310
H55         H  0.13772059  0.36968282  0.82448216     0.10510
Cu56       Cu  0.11949121  0.28618792  0.85351834     0.44170
Cu57       Cu  0.10647895  0.34718621  0.85140489     0.41990
Cu58       Cu  0.07510461  0.29249776  0.87616221     0.43880
N59         N  0.09529179  0.25279416  0.86567795    -0.33110
N60         N  0.07798959  0.25423574  0.87395272    -0.27370
C61         C  0.06240731  0.22722441  0.87942112    -0.03470
C62         C  0.07065119  0.20834381  0.87426588     0.08750
C63         C  0.09138789  0.22516758  0.86561265     0.02550
H64         H  0.04554912  0.22146222  0.88625475     0.10200
H65         H  0.10174953  0.21750009  0.85931537     0.09280
N66         N  0.07415428  0.33207975  0.87515029    -0.34560
N67         N  0.08415729  0.35087239  0.86602235    -0.26740
C68         C  0.07738209  0.37233187  0.86777807    -0.01980
C69         C  0.06300830  0.36719808  0.87858927     0.06630
C70         C  0.06133711  0.34153976  0.88304223     0.04720
H71         H  0.08228415  0.39019550  0.86156259     0.09830
H72         H  0.05028328  0.32974621  0.89113236     0.08660
N73         N  0.67290096  0.79276169  0.83752880    -0.25720
N74         N  0.69771484  0.81987375  0.83698686    -0.33580
C75         C  0.69612327  0.83470834  0.82756919     0.02620
C76         C  0.66884647  0.81601929  0.82185360     0.08640
C77         C  0.65461834  0.78961076  0.82840134    -0.04460
H78         H  0.71368116  0.85737732  0.82515103     0.09310
H79         H  0.63270134  0.76957570  0.82663161     0.10510
Cu80       Cu  0.73298389  0.83586827  0.84879886     0.44170
Cu81       Cu  0.66603475  0.76214386  0.85077403     0.41990
Cu82       Cu  0.72591392  0.79064319  0.87374411     0.43880
N83         N  0.76730897  0.84817396  0.86081735    -0.33110
N84         N  0.76519769  0.83168034  0.87010295    -0.27370
C85         C  0.79212222  0.84541842  0.87582032    -0.03470
C86         C  0.81166046  0.87167834  0.86976251     0.08750
C87         C  0.79534893  0.87276064  0.86032801     0.02550
H88         H  0.79720598  0.83664836  0.88360509     0.10200
H89         H  0.80338808  0.88975475  0.85344907     0.09280
N90         N  0.68570373  0.74884869  0.87415667    -0.34560
N91         N  0.66501527  0.73800087  0.86560506    -0.26740
C92         C  0.64358464  0.70931306  0.86820035    -0.01980
C93         C  0.65078686  0.70203106  0.87898005     0.06630
C94         C  0.67757821  0.72754643  0.88252372     0.04720
H95         H  0.62424760  0.69480518  0.86261883     0.09830
H96         H  0.69094070  0.72999800  0.89032588     0.08660
N97         N  0.26948206  0.65245331  0.73826938    -0.25720
N98         N  0.29131811  0.68127361  0.73848093    -0.33580
C99         C  0.27880697  0.69837943  0.73843645     0.02620
C100        C  0.24769780  0.67935118  0.73813879     0.08640
C101        C  0.24237864  0.65041931  0.73809019    -0.04460
H102        H  0.29145477  0.72280643  0.73871039     0.09310
H103        H  0.22055961  0.62950122  0.73801414     0.10510
Cu104      Cu  0.33701931  0.69624003  0.73892484     0.44170
Cu105      Cu  0.27781609  0.61751184  0.73817122     0.41990
Cu106      Cu  0.35742308  0.63957584  0.73878335     0.43880
N107        N  0.38126940  0.70617902  0.73935901    -0.33110
N108        N  0.38891667  0.68551303  0.73936416    -0.27370
C109        C  0.41939433  0.69940187  0.73984664    -0.03470
C110        C  0.43116416  0.73012146  0.74010054     0.08750
C111        C  0.40656439  0.73374312  0.73983075     0.02550
H112        H  0.43192805  0.68797326  0.74012054     0.10200
H113        H  0.40692355  0.75475647  0.74010706     0.09280
N114        N  0.32148821  0.59530082  0.73762675    -0.34560
N115        N  0.29254826  0.58727396  0.73741326    -0.26740
C116        C  0.27511236  0.55703301  0.73660432    -0.01980
C117        C  0.29405719  0.54570692  0.73623607     0.06630
C118        C  0.32323880  0.57038687  0.73696109     0.04720
H119        H  0.25051078  0.54429485  0.73641412     0.09830
H120        H  0.34417246  0.57029857  0.73711143     0.08660
N121        N  0.13236681  0.78603910  0.77487890    -0.25720
N122        N  0.15815123  0.78643449  0.77420056    -0.33580
C123        C  0.17656987  0.80273222  0.78314264     0.02620
C124        C  0.16201192  0.81336191  0.78990991     0.08640
C125        C  0.13387410  0.80243966  0.78444227    -0.04460
H126        H  0.19889242  0.80618063  0.78470042     0.09310
H127        H  0.11580872  0.80581806  0.78723298     0.10510
Cu128      Cu  0.16776111  0.76389260  0.76183172     0.44170
Cu129      Cu  0.09707506  0.76199236  0.76258608     0.41990
Cu130      Cu  0.11463101  0.72124239  0.73972747     0.43880
N131        N  0.17400565  0.73706847  0.75040910    -0.33110
N132        N  0.15412679  0.72055099  0.74210616    -0.27370
C133        C  0.16365971  0.70390286  0.73663524    -0.03470
C134        C  0.19079495  0.71062967  0.74184456     0.08750
C135        C  0.19671295  0.73162609  0.75051648     0.02550
H136        H  0.15144514  0.68771258  0.72964373     0.10200
H137        H  0.21562200  0.74159780  0.75668103     0.09280
N138        N  0.07553869  0.72331468  0.74015976    -0.34560
N139        N  0.06825629  0.73630886  0.74855397    -0.26740
C140        C  0.03986664  0.73030917  0.74641166    -0.01980
C141        C  0.02931356  0.71351591  0.73608361     0.06630
C142        C  0.05244335  0.70949895  0.73238145     0.04720
H143        H  0.02782059  0.73764261  0.75195454     0.09830
H144        H  0.05202458  0.69635808  0.72485052     0.08660
N145        N  0.20724386  0.32853369  0.77602438    -0.25720
N146        N  0.20267507  0.35119500  0.77499660    -0.33580
C147        C  0.18928409  0.35319744  0.78482875     0.02620
C148        C  0.18512329  0.33060235  0.79249255     0.08640
C149        C  0.19664074  0.31527905  0.78662349    -0.04460
H150        H  0.18387507  0.37044488  0.78631634     0.09310
H151        H  0.19793443  0.29643049  0.78993777     0.10510
Cu152      Cu  0.21756581  0.38059191  0.76100820     0.44170
Cu153      Cu  0.22942576  0.31879155  0.76305626     0.41990
Cu154      Cu  0.26007668  0.37261056  0.73800801     0.43880
N155        N  0.24077930  0.41307344  0.74842192    -0.33110
N156        N  0.25728861  0.41096150  0.73997271    -0.27370
C157        C  0.27214188  0.43742933  0.73409406    -0.03470
C158        C  0.26424922  0.45665672  0.73916903     0.08750
C159        C  0.24448289  0.44060965  0.74819803     0.02550
H160        H  0.28824371  0.44259734  0.72700647     0.10200
H161        H  0.23458882  0.44874547  0.75450989     0.09280
N162        N  0.26124174  0.33319648  0.73921895    -0.34560
N163        N  0.25149114  0.31468426  0.74843443    -0.26740
C164        C  0.25830333  0.29322323  0.74674553    -0.01980
C165        C  0.27243647  0.29807600  0.73588899     0.06630
C166        C  0.27393218  0.32356900  0.73134463     0.04720
H167        H  0.25355343  0.27552902  0.75302662     0.09830
H168        H  0.28473651  0.33512143  0.72318638     0.08660
N169        N  0.67026208  0.92462707  0.74695124    -0.25720
N170        N  0.64638295  0.91700655  0.74011783    -0.33580
C171        C  0.65481994  0.93727064  0.73131564     0.02620
C172        C  0.68550948  0.95831806  0.73255647     0.08640
C173        C  0.69463169  0.94958297  0.74250336    -0.04460
H174        H  0.63970784  0.93671560  0.72451252     0.09310
H175        H  0.71702707  0.96118721  0.74650004     0.10510
Cu176      Cu  0.60334888  0.87903511  0.74248081     0.44170
Cu177      Cu  0.66871857  0.90234854  0.76247345     0.41990
Cu178      Cu  0.59693263  0.83393803  0.76730144     0.43880
N179        N  0.56433615  0.83773612  0.74608679    -0.33110
N180        N  0.56252289  0.82115373  0.75529407    -0.27370
C181        C  0.53517612  0.79557931  0.75541218    -0.03470
C182        C  0.51904204  0.79609455  0.74579627     0.08750
C183        C  0.53794059  0.82303549  0.74002748     0.02550
H184        H  0.52762684  0.77805740  0.76205440     0.10200
H185        H  0.53293921  0.83134412  0.73208370     0.09280
N186        N  0.63288338  0.84978202  0.77875976    -0.34560
N187        N  0.65937645  0.87497990  0.77722396    -0.26740
C188        C  0.67768564  0.87835285  0.78637778    -0.01980
C189        C  0.66182447  0.85396339  0.79391400     0.06630
C190        C  0.63346979  0.83635959  0.78880836     0.04720
H191        H  0.70091707  0.89690928  0.78738528     0.09830
H192        H  0.61455702  0.81527416  0.79202494     0.08660
N193        N  0.05462905  0.03031810  0.07157483    -0.25720
N194        N  0.04805711  0.05176754  0.07147068    -0.33580
C195        C  0.07403347  0.07885951  0.07178393     0.02620
C196        C  0.09789940  0.07404995  0.07205077     0.08640
C197        C  0.08499294  0.04316775  0.07195512    -0.04460
H198        H  0.07535953  0.10035272  0.07192618     0.09310
H199        H  0.09670106  0.03091725  0.07224406     0.10510
Cu200      Cu  0.00421663  0.04330260  0.07106577     0.44170
Cu201      Cu  0.02210121  0.98467998  0.07122508     0.41990
Cu202      Cu  0.94347914  0.96473434  0.07049950     0.43880
N203        N  0.95860325  0.02916562  0.07078724    -0.33110
N204        N  0.93635439  0.00049176  0.07063195    -0.27370
C205        C  0.90952942  0.99903203  0.07076038    -0.03470
C206        C  0.91539152  0.02815490  0.07095883     0.08750
C207        C  0.94658770  0.04672992  0.07101441     0.02550
H208        H  0.88750982  0.97834380  0.07089970     0.10200
H209        H  0.95962560  0.07114339  0.07141151     0.09280
N210        N  0.95685034  0.93340112  0.06998779    -0.34560
N211        N  0.98556935  0.94072027  0.07025844    -0.26740
C212        C  0.98659206  0.91538767  0.06974460    -0.01980
C213        C  0.95714826  0.89115145  0.06906446     0.06630
C214        C  0.93880560  0.90318660  0.06929570     0.04720
H215        H  0.00721572  0.91472369  0.06993295     0.09830
H216        H  0.91421531  0.89095758  0.06906121     0.08660
N217        N  0.79033965  0.12847913  0.10714876    -0.25720
N218        N  0.81508630  0.12706110  0.10829350    -0.33580
C219        C  0.83032000  0.14204502  0.11807781     0.02620
C220        C  0.81451034  0.15362357  0.12345596     0.08640
C221        C  0.78926550  0.14461986  0.11629343    -0.04460
H222        H  0.85131664  0.14411811  0.12099199     0.09310
H223        H  0.77141046  0.14938256  0.11765863     0.10510
Cu224      Cu  0.82778766  0.10475054  0.09690430     0.44170
Cu225      Cu  0.75952883  0.10786891  0.09313671     0.41990
Cu226      Cu  0.77904759  0.06474467  0.07290670     0.43880
N227        N  0.83675002  0.08009545  0.08519443    -0.33110
N228        N  0.81861580  0.06487779  0.07623759    -0.27370
C229        C  0.83014892  0.05042378  0.07043743    -0.03470
C230        C  0.85673450  0.05709943  0.07610130     0.08750
C231        C  0.86029772  0.07586908  0.08539569     0.02550
H232        H  0.81977401  0.03592601  0.06280795     0.10200
H233        H  0.87836007  0.08539414  0.09193227     0.09280
N234        N  0.74115454  0.06849540  0.07113700    -0.34560
N235        N  0.73394079  0.08414073  0.07821722    -0.26740
C236        C  0.70796763  0.08148613  0.07421770    -0.01980
C237        C  0.69839606  0.06319429  0.06423324     0.06630
C238        C  0.72006774  0.05545964  0.06256463     0.04720
H239        H  0.69661993  0.09172297  0.07837597     0.09830
H240        H  0.72070244  0.04144766  0.05561517     0.08660
N241        N  0.33436622  0.26926341  0.08116754    -0.25720
N242        N  0.31378553  0.25814609  0.07258083    -0.33580
C243        C  0.32153674  0.27941860  0.06423197     0.02620
C244        C  0.34798794  0.30526004  0.06780460     0.08640
C245        C  0.35538210  0.29814729  0.07859867    -0.04460
H246        H  0.30808031  0.27671965  0.05642968     0.09310
H247        H  0.37452594  0.31292462  0.08421432     0.10510
Cu248      Cu  0.27395300  0.21610557  0.07299958     0.44170
Cu249      Cu  0.33327892  0.24500568  0.09604662     0.41990
Cu250      Cu  0.26545859  0.17155564  0.09845946     0.43880
N251        N  0.23436813  0.17542093  0.07667548    -0.33110
N252        N  0.23157147  0.15921278  0.08615483    -0.27370
C253        C  0.20332084  0.13487852  0.08655529    -0.03470
C254        C  0.18763348  0.13586882  0.07686360     0.08750
C255        C  0.20774930  0.16178355  0.07075052     0.02550
H256        H  0.19472495  0.11811127  0.09352915     0.10200
H257        H  0.20325479  0.17041686  0.06277756     0.09280
N258        N  0.30111699  0.18752956  0.11016456    -0.34560
N259        N  0.32617975  0.21443967  0.10943929    -0.26740
C260        C  0.34473411  0.21749622  0.11845753    -0.01980
C261        C  0.33050694  0.19124726  0.12512127     0.06630
C262        C  0.30287619  0.17275986  0.11958949     0.04720
H263        H  0.36692910  0.23732371  0.12004665     0.09830
H264        H  0.28522361  0.15024006  0.12213347     0.08660
N265        N  0.87372539  0.67336413  0.10818067    -0.25720
N266        N  0.86905502  0.69603489  0.10763128    -0.33580
C267        C  0.85675771  0.69784877  0.11782042     0.02620
C268        C  0.85343638  0.67511883  0.12520842     0.08640
C269        C  0.86426878  0.65990431  0.11881253    -0.04460
H270        H  0.85143697  0.71499784  0.11971959     0.09310
H271        H  0.86588614  0.64098598  0.12178452     0.10510
Cu272      Cu  0.88227455  0.72558810  0.09372811     0.44170
Cu273      Cu  0.89448470  0.66377933  0.09455260     0.41990
Cu274      Cu  0.92188176  0.71765790  0.06955221     0.43880
N275        N  0.90398701  0.75813479  0.08102728    -0.33110
N276        N  0.91940721  0.75601328  0.07213219    -0.27370
C277        C  0.93363825  0.78251866  0.06626752    -0.03470
C278        C  0.92649375  0.80179061  0.07181951     0.08750
C279        C  0.90779854  0.78572353  0.08111200     0.02550
H280        H  0.94887785  0.78768892  0.05885712     0.10200
H281        H  0.89876318  0.79388095  0.08779446     0.09280
N282        N  0.92355734  0.67847205  0.07018077    -0.34560
N283        N  0.91503260  0.65992675  0.07936915    -0.26740
C284        C  0.92203236  0.63875589  0.07723675    -0.01980
C285        C  0.93499669  0.64384518  0.06612348     0.06630
C286        C  0.93560704  0.66916184  0.06189019     0.04720
H287        H  0.91825843  0.62113762  0.08339323     0.09830
H288        H  0.94546209  0.68086160  0.05365204     0.08660
N289        N  0.73379464  0.34804923  0.20706900    -0.25720
N290        N  0.71156498  0.31944866  0.20636589    -0.33580
C291        C  0.72362632  0.30196103  0.20571788     0.02620
C292        C  0.75482096  0.32057007  0.20607782     0.08640
C293        C  0.76063547  0.34959424  0.20688521    -0.04460
H294        H  0.71065128  0.27763490  0.20481850     0.09310
H295        H  0.78263804  0.37030525  0.20709400     0.10510
Cu296      Cu  0.66604816  0.30569383  0.20594568     0.44170
Cu297      Cu  0.72662707  0.38357154  0.20789809     0.41990
Cu298      Cu  0.64831102  0.36464465  0.20710851     0.43880
N299        N  0.62232043  0.29758354  0.20572285    -0.33110
N300        N  0.61577019  0.31904074  0.20612499    -0.27370
C301        C  0.58539419  0.30622073  0.20582237    -0.03470
C302        C  0.57247800  0.27535984  0.20524710     0.08750
C303        C  0.59633761  0.27054699  0.20515416     0.02550
H304        H  0.57368472  0.31847818  0.20595507     0.10200
H305        H  0.59499848  0.24907574  0.20464800     0.09280
N306        N  0.68525915  0.40832463  0.20845067    -0.34560
N307        N  0.71380722  0.41511975  0.20875193    -0.26740
C308        C  0.73232981  0.44522353  0.20952567    -0.01980
C309        C  0.71450534  0.45777898  0.20977021     0.06630
C310        C  0.68483952  0.43397573  0.20902500     0.04720
H311        H  0.75690661  0.45702988  0.20971373     0.09830
H312        H  0.66451148  0.43516261  0.20874662     0.08660
N313        N  0.33712706  0.07681945  0.19721894    -0.25720
N314        N  0.35794039  0.08849540  0.20571840    -0.33580
C315        C  0.35041520  0.06772860  0.21428446     0.02620
C316        C  0.32386303  0.04162090  0.21096200     0.08640
C317        C  0.31622126  0.04808440  0.20007109    -0.04460
H318        H  0.36409784  0.07092234  0.22206774     0.09310
H319        H  0.29697731  0.03292399  0.19457154     0.10510
Cu320      Cu  0.39769932  0.13072938  0.20493214     0.44170
Cu321      Cu  0.33764297  0.10013222  0.18205305     0.41990
Cu322      Cu  0.40477058  0.17392332  0.17924735     0.43880
N323        N  0.43673641  0.17187912  0.20105682    -0.33110
N324        N  0.43892325  0.18758546  0.19149281    -0.27370
C325        C  0.46679943  0.21244513  0.19097862    -0.03470
C326        C  0.48291896  0.21236467  0.20068981     0.08750
C327        C  0.46343193  0.18641110  0.20692824     0.02550
H328        H  0.47486311  0.22895377  0.18391256     0.10200
H329        H  0.46841704  0.17837722  0.21495463     0.09280
N330        N  0.36908782  0.15704868  0.16756608    -0.34560
N331        N  0.34421297  0.13002519  0.16838942    -0.26740
C332        C  0.32556428  0.12653875  0.15933001    -0.01980
C333        C  0.33956909  0.15263698  0.15255445     0.06630
C334        C  0.36714049  0.17145115  0.15806318     0.04720
H335        H  0.30343820  0.10656839  0.15780377     0.09830
H336        H  0.38462624  0.19400341  0.15547580     0.08660
N337        N  0.87963008  0.22181171  0.16828697    -0.25720
N338        N  0.85529351  0.22390936  0.16705746    -0.33580
C339        C  0.84002121  0.20912567  0.15724466     0.02620
C340        C  0.85539313  0.19698159  0.15194192     0.08640
C341        C  0.88041193  0.20545207  0.15916828    -0.04460
H342        H  0.81930550  0.20756253  0.15425881     0.09310
H343        H  0.89789640  0.20013762  0.15787337     0.10510
Cu344      Cu  0.84319691  0.24671606  0.17843386     0.44170
Cu345      Cu  0.91029468  0.24168612  0.18239691     0.41990
Cu346      Cu  0.89210809  0.28569628  0.20260665     0.43880
N347        N  0.83456424  0.27114047  0.19037211    -0.33110
N348        N  0.85270778  0.28592576  0.19938548    -0.27370
C349        C  0.84104865  0.29988296  0.20545414    -0.03470
C350        C  0.81438359  0.29333115  0.19990212     0.08750
C351        C  0.81089169  0.27516454  0.19039869     0.02550
H352        H  0.85127912  0.31378859  0.21323966     0.10200
H353        H  0.79267292  0.26572859  0.18392798     0.09280
N354        N  0.92929986  0.28084273  0.20445634    -0.34560
N355        N  0.93597268  0.26473566  0.19740280    -0.26740
C356        C  0.96141739  0.26641643  0.20151025    -0.01980
C357        C  0.97122176  0.28457985  0.21153293     0.06630
C358        C  0.95023274  0.29324653  0.21311018     0.04720
H359        H  0.97225375  0.25560482  0.19740319     0.09830
H360        H  0.94992037  0.30739681  0.22007768     0.08660
N361        N  0.80492867  0.68176552  0.17323966    -0.25720
N362        N  0.80742008  0.65769649  0.17314816    -0.33580
C363        C  0.81869784  0.65580807  0.16272699     0.02620
C364        C  0.82363842  0.67986774  0.15580199     0.08640
C365        C  0.81472928  0.69596327  0.16273338    -0.04460
H366        H  0.82210788  0.63761147  0.16036079     0.09310
H367        H  0.81469346  0.71604552  0.16021958     0.10510
Cu368      Cu  0.79275753  0.62588439  0.18627432     0.44170
Cu369      Cu  0.78614305  0.69211437  0.18745262     0.41990
Cu370      Cu  0.75064869  0.63056407  0.20953199     0.43880
N371        N  0.77029431  0.59169610  0.19830658    -0.33110
N372        N  0.75397497  0.59300019  0.20701793    -0.27370
C373        C  0.73942860  0.56621855  0.21263099    -0.03470
C374        C  0.74723762  0.54749475  0.20709655     0.08750
C375        C  0.76670186  0.56419060  0.19805914     0.02550
H376        H  0.72342721  0.56046788  0.21980726     0.10200
H377        H  0.77634264  0.55652482  0.19143470     0.09280
N378        N  0.74894650  0.66943633  0.20995013    -0.34560
N379        N  0.76227186  0.69215333  0.20235111    -0.26740
C380        C  0.75491025  0.71275186  0.20523543    -0.01980
C381        C  0.73598077  0.70218417  0.21500758     0.06630
C382        C  0.73247533  0.67469189  0.21766707     0.04720
H383        H  0.76119781  0.73284549  0.20014560     0.09830
H384        H  0.71810776  0.65907052  0.22447069     0.08660
N385        N  0.32242120  0.60838972  0.03744794    -0.25720
N386        N  0.35133382  0.63030877  0.03694778    -0.33580
C387        C  0.36882651  0.61815462  0.03678006     0.02620
C388        C  0.34997794  0.58721146  0.03723158     0.08640
C389        C  0.32073743  0.58163740  0.03760755    -0.04460
H390        H  0.39339240  0.63092403  0.03627286     0.09310
H391        H  0.29982003  0.55985419  0.03789937     0.10510
Cu392      Cu  0.36592933  0.67571404  0.03641927     0.44170
Cu393      Cu  0.28675240  0.61600048  0.03791982     0.41990
Cu394      Cu  0.30786496  0.69458873  0.03711991     0.43880
N395        N  0.37512298  0.71951480  0.03600089    -0.33110
N396        N  0.35383260  0.72645850  0.03621711    -0.27370
C397        C  0.36711008  0.75664117  0.03575588    -0.03470
C398        C  0.39812456  0.76904707  0.03526580     0.08750
C399        C  0.40255048  0.74507104  0.03539734     0.02550
H400        H  0.35505137  0.76855962  0.03569563     0.10200
H401        H  0.42400554  0.74604196  0.03498494     0.09280
N402        N  0.26358451  0.65868649  0.03856895    -0.34560
N403        N  0.25582131  0.63005005  0.03885874    -0.26740
C404        C  0.22542461  0.61252874  0.03985912    -0.01980
C405        C  0.21377073  0.63113521  0.04027417     0.06630
C406        C  0.23838554  0.66017401  0.03937661     0.04720
H407        H  0.21280479  0.58811164  0.04014958     0.09830
H408        H  0.23806045  0.68083739  0.03920854     0.08660
N409        N  0.54189693  0.00020773  0.00083227    -0.25720
N410        N  0.51610707  0.97416333  0.99932713    -0.33580
C411        C  0.50207582  0.97525988  0.98949775     0.02620
C412        C  0.51973938  0.00342260  0.98444344     0.08640
C413        C  0.54489194  0.01870638  0.99184106    -0.04460
H414        H  0.48056336  0.95667802  0.98634518     0.09310
H415        H  0.56388125  0.04156148  0.99076972     0.10510
Cu416      Cu  0.49987409  0.93742296  0.01027843     0.44170
Cu417      Cu  0.57119041  0.00841290  0.01517283     0.41990
Cu418      Cu  0.54441505  0.94188432  0.03460882     0.43880
N419        N  0.48647627  0.90191176  0.02167451    -0.33110
N420        N  0.50308164  0.90326870  0.03084832    -0.27370
C421        C  0.48881555  0.87647531  0.03646262    -0.03470
C422        C  0.46204519  0.85769133  0.03044415     0.08750
C423        C  0.46120972  0.87437598  0.02113085     0.02550
H424        H  0.49746156  0.87103231  0.04420520     0.10200
H425        H  0.44381798  0.86700047  0.01436496     0.09280
N426        N  0.58489999  0.98264030  0.03678392    -0.34560
N427        N  0.59464711  0.00703382  0.03014173    -0.26740
C428        C  0.62228591  0.02869958  0.03415080    -0.01980
C429        C  0.63001185  0.01715627  0.04368684     0.06630
C430        C  0.60603861  0.98794412  0.04497837     0.04720
H431        H  0.63640249  0.05051149  0.03001635     0.09830
H432        H  0.60444752  0.97133468  0.05120786     0.08660
N433        N  0.44712394  0.45926198  0.00270135    -0.25720
N434        N  0.44902759  0.48558177  0.00197077    -0.33580
C435        C  0.46580453  0.50071361  0.99251387     0.02620
C436        C  0.47502086  0.48306267  0.98697939     0.08640
C437        C  0.46281885  0.45695039  0.99367381    -0.04460
H438        H  0.47063242  0.52283299  0.98991176     0.09310
H439        H  0.46507416  0.43767318  0.99207323     0.10510
Cu440      Cu  0.42838504  0.49986227  0.01355414     0.44170
Cu441      Cu  0.42309160  0.42828913  0.01601946     0.41990
Cu442      Cu  0.38948804  0.45330957  0.03856986     0.43880
N443        N  0.40408844  0.50939554  0.02529187    -0.33110
N444        N  0.38949862  0.49238806  0.03455417    -0.27370
C445        C  0.37453897  0.50394577  0.03998459    -0.03470
C446        C  0.38024724  0.52933202  0.03377667     0.08750
C447        C  0.39897065  0.53217019  0.02454892     0.02550
H448        H  0.36012352  0.49422790  0.04767424     0.10200
H449        H  0.40766948  0.54908019  0.01762793     0.09280
N450        N  0.38907949  0.41308462  0.03930382    -0.34560
N451        N  0.39967754  0.40334956  0.03085281    -0.26740
C452        C  0.39293027  0.37527366  0.03354931    -0.01980
C453        C  0.37800447  0.36724942  0.04429998     0.06630
C454        C  0.37593427  0.39169544  0.04771418     0.04720
H455        H  0.39838609  0.36166300  0.02805240     0.09830
H456        H  0.36443955  0.39326083  0.05544630     0.08660
N457        N  0.99322448  0.54741009  0.00189027    -0.25720
N458        N  0.01608340  0.54287430  0.00271364    -0.33580
C459        C  0.01755819  0.52932666  0.99286023     0.02620
C460        C  0.99440256  0.52496664  0.98535821     0.08640
C461        C  0.97929814  0.53659907  0.99136450    -0.04460
H462        H  0.03478754  0.52383548  0.99127836     0.09310
H463        H  0.96003477  0.53767232  0.98821222     0.10510
Cu464      Cu  0.04640699  0.55748400  0.01646138     0.44170
Cu465      Cu  0.98414567  0.56942206  0.01518410     0.41990
Cu466      Cu  0.03982522  0.59833778  0.04008955     0.43880
N467        N  0.07986300  0.57958869  0.02888104    -0.33110
N468        N  0.07824015  0.59553492  0.03765074    -0.27370
C469        C  0.10511364  0.60972859  0.04342758    -0.03470
C470        C  0.12408021  0.60197537  0.03793853     0.08750
C471        C  0.10747445  0.58299389  0.02877562     0.02550
H472        H  0.11072184  0.62528592  0.05073586     0.10200
H473        H  0.11525981  0.57341484  0.02217735     0.09280
N474        N  0.00036730  0.59994806  0.03936605    -0.34560
N475        N  0.98126416  0.59096030  0.03026964    -0.26740
C476        C  0.96011248  0.59814007  0.03241288    -0.01980
C477        C  0.96581826  0.61170958  0.04342730     0.06630
C478        C  0.99145270  0.61247169  0.04759159     0.04720
H479        H  0.94207030  0.59404715  0.02633407     0.09830
H480        H  0.00363912  0.62271421  0.05573914     0.08660
N481        N  0.64236906  0.28064879  0.90193403    -0.25720
N482        N  0.62078962  0.28715638  0.90252119    -0.33580
C483        C  0.59352559  0.26134033  0.90281615     0.02620
C484        C  0.59830904  0.23761220  0.90234455     0.08640
C485        C  0.62941091  0.25046469  0.90184213    -0.04460
H486        H  0.57192925  0.26001456  0.90347236     0.09310
H487        H  0.64174055  0.23882992  0.90156131     0.10510
Cu488      Cu  0.62929058  0.33070039  0.90310251     0.44170
Cu489      Cu  0.68831017  0.31316781  0.90136774     0.41990
Cu490      Cu  0.70796569  0.39138265  0.90218087     0.43880
N491        N  0.64310870  0.37589805  0.90368399    -0.33110
N492        N  0.67188561  0.39818199  0.90338482    -0.27370
C493        C  0.67312662  0.42467281  0.90407737    -0.03470
C494        C  0.64373291  0.41854859  0.90480339     0.08750
C495        C  0.62524708  0.38754965  0.90456974     0.02550
H496        H  0.69385498  0.44663642  0.90416501     0.10200
H497        H  0.60069661  0.37439316  0.90513466     0.09280
N498        N  0.73954871  0.37832273  0.90071806    -0.34560
N499        N  0.73240903  0.34987036  0.90044110    -0.26740
C500        C  0.75805801  0.34918997  0.89956053    -0.01980
C501        C  0.78228067  0.37856753  0.89920966     0.06630
C502        C  0.76992862  0.39650633  0.90001869     0.04720
H503        H  0.75895937  0.32884054  0.89935598     0.09830
H504        H  0.78207279  0.42091967  0.90025398     0.08660
N505        N  0.00057022  0.46700606  0.93973927    -0.25720
N506        N  0.97792208  0.47178153  0.93857706    -0.33580
C507        C  0.97599065  0.48541804  0.94833747     0.02620
C508        C  0.99862655  0.48954105  0.95608716     0.08640
C509        C  0.01387807  0.47772748  0.95035191    -0.04460
H510        H  0.95886281  0.49115894  0.94970132     0.09310
H511        H  0.03281708  0.47643146  0.95375448     0.10510
Cu512      Cu  0.94860026  0.45722066  0.92445214     0.44170
Cu513      Cu  0.01049841  0.44464955  0.92691266     0.41990
Cu514      Cu  0.95727579  0.41523831  0.90154536     0.43880
N515        N  0.91624544  0.43431447  0.91167215    -0.33110
N516        N  0.91866720  0.41801432  0.90324915    -0.27370
C517        C  0.89212035  0.40304195  0.89727593    -0.03470
C518        C  0.87249874  0.41064023  0.90225321     0.08750
C519        C  0.88840097  0.43035921  0.91133215     0.02550
H520        H  0.88711159  0.38693623  0.89023281     0.10200
H521        H  0.87990686  0.43991863  0.91763577     0.09280
N522        N  0.99632361  0.41311036  0.90304771    -0.34560
N523        N  0.01464308  0.42234810  0.91238620    -0.26740
C524        C  0.03567488  0.41470315  0.91088432    -0.01980
C525        C  0.03070436  0.40054086  0.90002473     0.06630
C526        C  0.00562992  0.39994001  0.89528701     0.04720
H527        H  0.05310926  0.41886776  0.91729421     0.09830
H528        H  0.99404896  0.38936363  0.88707839     0.08660
N529        N  0.55028465  0.54668489  0.94360679    -0.25720
N530        N  0.54825405  0.52027994  0.94419607    -0.33580
C531        C  0.53158991  0.50503766  0.95366564     0.02620
C532        C  0.52260984  0.52271258  0.95934226     0.08640
C533        C  0.53480861  0.54893221  0.95272771    -0.04460
H534        H  0.52658323  0.48279101  0.95616041     0.09310
H535        H  0.53265535  0.56823070  0.95443304     0.10510
Cu536      Cu  0.56824848  0.50583737  0.93233033     0.44170
Cu537      Cu  0.57401695  0.57801987  0.93037318     0.41990
Cu538      Cu  0.60545763  0.55270869  0.90722140     0.43880
N539        N  0.59123040  0.49613183  0.91997428    -0.33110
N540        N  0.60507242  0.51328720  0.91065730    -0.27370
C541        C  0.61916943  0.50159519  0.90469053    -0.03470
C542        C  0.61369940  0.47593932  0.91059694     0.08750
C543        C  0.59599905  0.47307320  0.92021635     0.02550
H544        H  0.63285200  0.51139761  0.89682950     0.10200
H545        H  0.58774430  0.45593180  0.92704020     0.09280
N546        N  0.60711780  0.59347154  0.90694974    -0.34560
N547        N  0.59726458  0.60337576  0.91561079    -0.26740
C548        C  0.60476008  0.63180721  0.91315456    -0.01980
C549        C  0.61943148  0.63986029  0.90234894     0.06630
C550        C  0.62054425  0.61507825  0.89865303     0.04720
H551        H  0.59999430  0.64561882  0.91884487     0.09830
H552        H  0.63156476  0.61337126  0.89079471     0.08660
N553        N  0.45740601  0.01224357  0.94023526    -0.25720
N554        N  0.48405352  0.03766900  0.94101648    -0.33580
C555        C  0.49893779  0.03698730  0.95066890     0.02620
C556        C  0.48083346  0.00968969  0.95631678     0.08640
C557        C  0.45465805  0.99451509  0.94946456    -0.04460
H558        H  0.52134355  0.05509766  0.95326690     0.09310
H559        H  0.43515096  0.97221939  0.95105412     0.10510
Cu560      Cu  0.49953540  0.07224301  0.92900450     0.44170
Cu561      Cu  0.42704329  0.00366533  0.92634549     0.41990
Cu562      Cu  0.45517414  0.06202898  0.90302913     0.43880
N563        N  0.51182605  0.10528642  0.91648901    -0.33110
N564        N  0.49573059  0.10202100  0.90685617    -0.27370
C565        C  0.50960279  0.12824633  0.90080817    -0.03470
C566        C  0.53553408  0.14855943  0.90700574     0.08750
C567        C  0.53626437  0.13338707  0.91686779     0.02550
H568        H  0.50120395  0.13230598  0.89265663     0.10200
H569        H  0.55299872  0.14220792  0.92392385     0.09280
N570        N  0.41399353  0.02094071  0.90225330    -0.34560
N571        N  0.40316858  0.00071188  0.91089471    -0.26740
C572        C  0.37477543  0.97853081  0.90800557    -0.01980
C573        C  0.36767820  0.98468152  0.89694182     0.06630
C574        C  0.39302636  0.01175020  0.89356165     0.04720
H575        H  0.36017280  0.95950363  0.91363217     0.09830
H576        H  0.39540454  0.02468175  0.88568003     0.08660
N577        N  0.01252509  0.06830941  0.57531595    -0.25720
N578        N  0.98388219  0.04564049  0.57513013    -0.33580
C579        C  0.96545013  0.05674910  0.57533863     0.02620
C580        C  0.98331192  0.08781423  0.57564038     0.08640
C581        C  0.01301461  0.09451289  0.57565502    -0.04460
H582        H  0.94086577  0.04316017  0.57534368     0.09310
H583        H  0.03343275  0.11669811  0.57594336     0.10510
Cu584      Cu  0.97062919  0.00047285  0.57467951     0.44170
Cu585      Cu  0.04949198  0.06229810  0.57504607     0.41990
Cu586      Cu  0.03007378  0.98386679  0.57430890     0.43880
N587        N  0.96233442  0.95689387  0.57425890    -0.33110
N588        N  0.98416074  0.95068835  0.57416951    -0.27370
C589        C  0.97146411  0.92051104  0.57398783    -0.03470
C590        C  0.94025067  0.90730619  0.57391821     0.08750
C591        C  0.93517511  0.93088905  0.57413399     0.02550
H592        H  0.98402609  0.90910027  0.57399627     0.10200
H593        H  0.91341658  0.92932121  0.57429624     0.09280
N594        N  0.07429395  0.02080201  0.57393055    -0.34560
N595        N  0.08152015  0.04929909  0.57419524    -0.26740
C596        C  0.11202355  0.06736286  0.57369334    -0.01980
C597        C  0.12434154  0.04929232  0.57303560     0.06630
C598        C  0.09991634  0.01999592  0.57325234     0.04720
H599        H  0.12426704  0.09178516  0.57381331     0.09830
H600        H  0.10065036  0.99956250  0.57295590     0.08660
N601        N  0.87435725  0.20393323  0.61105208    -0.25720
N602        N  0.87342604  0.17801620  0.61140970    -0.33580
C603        C  0.85749906  0.16213058  0.62093294     0.02620
C604        C  0.84779645  0.17879394  0.62692456     0.08640
C605        C  0.85881573  0.20512850  0.62040670    -0.04460
H606        H  0.85378490  0.14029463  0.62334520     0.09310
H607        H  0.85611091  0.22395680  0.62242787     0.10510
Cu608      Cu  0.89507787  0.16570010  0.59943383     0.44170
Cu609      Cu  0.89774697  0.23652735  0.59793458     0.41990
Cu610      Cu  0.93521802  0.21604657  0.57539750     0.43880
N611        N  0.92162789  0.15896725  0.58776423    -0.33110
N612        N  0.93678293  0.17740871  0.57890593    -0.27370
C613        C  0.95349036  0.16766689  0.57355443    -0.03470
C614        C  0.94836006  0.14196396  0.57938355     0.08750
C615        C  0.92811823  0.13708500  0.58831001     0.02550
H616        H  0.96874879  0.17886590  0.56620082     0.10200
H617        H  0.91938627  0.11944792  0.59494131     0.09280
N618        N  0.93402430  0.25560911  0.57503602    -0.34560
N619        N  0.92198830  0.26384154  0.58348178    -0.26740
C620        C  0.92839665  0.29206569  0.58117807    -0.01980
C621        C  0.94461443  0.30178242  0.57068307     0.06630
C622        C  0.94771022  0.27806396  0.56703792     0.04720
H623        H  0.92206854  0.30476516  0.58681876     0.09830
H624        H  0.96047047  0.27781090  0.55948341     0.08660
N625        N  0.34560439  0.12760645  0.60996580    -0.25720
N626        N  0.32357602  0.13339639  0.60926998    -0.33580
C627        C  0.32209878  0.14605364  0.61939489     0.02620
C628        C  0.34436861  0.14850687  0.62697201     0.08640
C629        C  0.35898400  0.13670550  0.62069570    -0.04460
H630        H  0.30535463  0.15212831  0.62111927     0.09310
H631        H  0.37744959  0.13424861  0.62381661     0.10510
Cu632      Cu  0.29383137  0.12085597  0.59535746     0.44170
Cu633      Cu  0.35392405  0.10598388  0.59616489     0.41990
Cu634      Cu  0.29753395  0.07809003  0.57148729     0.43880
N635        N  0.25947084  0.09910708  0.58321827    -0.33110
N636        N  0.25975005  0.08233112  0.57446648    -0.27370
C637        C  0.23230900  0.06861132  0.56905932    -0.03470
C638        C  0.21441124  0.07751256  0.57475852     0.08750
C639        C  0.23229395  0.09670186  0.58366480     0.02550
H640        H  0.22557788  0.05262414  0.56184138     0.10200
H641        H  0.22564123  0.10710779  0.59034759     0.09280
N642        N  0.33729059  0.07627138  0.57169234    -0.34560
N643        N  0.35657352  0.08505687  0.58073399    -0.26740
C644        C  0.37771727  0.07795020  0.57840415    -0.01980
C645        C  0.37201152  0.06464642  0.56731725     0.06630
C646        C  0.34621668  0.06396727  0.56330905     0.04720
H647        H  0.39568135  0.08169449  0.58446016     0.09830
H648        H  0.33385158  0.05373164  0.55519374     0.08660
N649        N  0.79771906  0.67812211  0.60839548    -0.25720
N650        N  0.82489019  0.70287862  0.60924333    -0.33580
C651        C  0.83928640  0.70114498  0.61885358     0.02620
C652        C  0.82026415  0.67384767  0.62438345     0.08640
C653        C  0.79411208  0.65977479  0.61750570    -0.04460
H654        H  0.86189542  0.71862830  0.62154719     0.09310
H655        H  0.77393357  0.63790881  0.61904618     0.10510
Cu656      Cu  0.84123345  0.73826096  0.59752165     0.44170
Cu657      Cu  0.76754163  0.67148638  0.59476042     0.41990
Cu658      Cu  0.79555484  0.73190559  0.57231231     0.43880
N659        N  0.85353788  0.77283542  0.58567548    -0.33110
N660        N  0.83699602  0.77109866  0.57638760    -0.27370
C661        C  0.85093831  0.79816366  0.57090960    -0.03470
C662        C  0.87736752  0.81742905  0.57710093     0.08750
C663        C  0.87828403  0.80072180  0.58637841     0.02550
H664        H  0.84220482  0.80353940  0.56317763     0.10200
H665        H  0.89530214  0.80840637  0.59331074     0.09280
N666        N  0.75372136  0.69113139  0.57139620    -0.34560
N667        N  0.74316858  0.67023447  0.57978889    -0.26740
C668        C  0.71452069  0.64846439  0.57702617    -0.01980
C669        C  0.70683841  0.65554070  0.56628934     0.06630
C670        C  0.73220274  0.68272020  0.56295364     0.04720
H671        H  0.70020735  0.62899853  0.58250269     0.09830
H672        H  0.73429333  0.69614719  0.55527040     0.08660
N673        N  0.69265934  0.39145274  0.70803703    -0.25720
N674        N  0.71450662  0.38528589  0.70775229    -0.33580
C675        C  0.74150041  0.41111545  0.70666226     0.02620
C676        C  0.73631016  0.43454697  0.70627968     0.08640
C677        C  0.70522092  0.42151015  0.70712887    -0.04460
H678        H  0.76319959  0.41262256  0.70610716     0.09310
H679        H  0.69265053  0.43290858  0.70703469     0.10510
Cu680      Cu  0.70703896  0.34230876  0.70871951     0.44170
Cu681      Cu  0.64699060  0.35856255  0.70969348     0.41990
Cu682      Cu  0.62959795  0.28106543  0.71168807     0.43880
N683        N  0.69454690  0.29765115  0.70955749    -0.33110
N684        N  0.66609167  0.27503912  0.71060248    -0.27370
C685        C  0.66552797  0.24886112  0.71056163    -0.03470
C686        C  0.69505419  0.25559874  0.70947851     0.08750
C687        C  0.71291314  0.28657496  0.70882657     0.02550
H688        H  0.64514739  0.22668464  0.71107121     0.10200
H689        H  0.73731202  0.30006409  0.70768102     0.09280
N690        N  0.59736143  0.29323721  0.71271090    -0.34560
N691        N  0.60355908  0.32133620  0.71195578    -0.26740
C692        C  0.57747558  0.32122511  0.71279283    -0.01980
C693        C  0.55402046  0.29172276  0.71420146     0.06630
C694        C  0.56723273  0.27452067  0.71405032     0.04720
H695        H  0.57573403  0.34106882  0.71222606     0.09830
H696        H  0.55581559  0.25019068  0.71465946     0.08660
N697        N  0.33634663  0.20111465  0.67385586    -0.25720
N698        N  0.35888312  0.19612488  0.67489666    -0.33580
C699        C  0.36128494  0.18359416  0.66487218     0.02620
C700        C  0.33908907  0.18044515  0.65707838     0.08640
C701        C  0.32361735  0.19166989  0.66306964    -0.04460
H702        H  0.37848407  0.17802636  0.66334554     0.09310
H703        H  0.30494907  0.19349808  0.65971869     0.10510
Cu704      Cu  0.38755609  0.20933846  0.68925954     0.44170
Cu705      Cu  0.32579209  0.22222792  0.68705615     0.41990
Cu706      Cu  0.37757243  0.24956864  0.71273411     0.43880
N707        N  0.41942432  0.23185945  0.70229057    -0.33110
N708        N  0.41646426  0.24747079  0.71086927    -0.27370
C709        C  0.44296075  0.26283296  0.71684466    -0.03470
C710        C  0.46315119  0.25623339  0.71172039     0.08750
C711        C  0.44762203  0.23667188  0.70254763     0.02550
H712        H  0.44759169  0.27871611  0.72393888     0.10200
H713        H  0.45665393  0.22801381  0.69607573     0.09280
N714        N  0.33869849  0.25189326  0.71128079    -0.34560
N715        N  0.32081449  0.24337819  0.70182436    -0.26740
C716        C  0.29984278  0.25109110  0.70336751    -0.01980
C717        C  0.30442350  0.26455666  0.71436788     0.06630
C718        C  0.32920285  0.26466873  0.71914906     0.04720
H719        H  0.28278881  0.24755608  0.69687659     0.09830
H720        H  0.34053005  0.27473918  0.72745447     0.08660
N721        N  0.78122920  0.11801115  0.67255882    -0.25720
N722        N  0.78203837  0.14377330  0.67144008    -0.33580
C723        C  0.79615912  0.15742888  0.66134857     0.02620
C724        C  0.80489913  0.13960323  0.65568079     0.08640
C725        C  0.79505468  0.11470746  0.66302778    -0.04460
H726        H  0.79969110  0.17887981  0.65846628     0.09310
H727        H  0.79783287  0.09569959  0.66156040     0.10510
Cu728      Cu  0.76436543  0.16082934  0.68315444     0.44170
Cu729      Cu  0.76104483  0.08919986  0.68714639     0.41990
Cu730      Cu  0.72708582  0.11808014  0.70806798     0.43880
N731        N  0.74409885  0.17450681  0.69514674    -0.33110
N732        N  0.72991622  0.15836514  0.70460760    -0.27370
C733        C  0.71743633  0.17175388  0.71048849    -0.03470
C734        C  0.72433313  0.19752921  0.70434938     0.08750
C735        C  0.74116594  0.19869425  0.69467284     0.02550
H736        H  0.70369347  0.16291187  0.71839311     0.10200
H737        H  0.74983758  0.21528704  0.68763536     0.09280
N738        N  0.72444893  0.07729321  0.70967701    -0.34560
N739        N  0.73703918  0.06664863  0.70252525    -0.26740
C740        C  0.72917710  0.03881541  0.70630766    -0.01980
C741        C  0.71052136  0.03184274  0.71613289     0.06630
C742        C  0.70797514  0.05660205  0.71794233     0.04720
H743        H  0.73500023  0.02409311  0.70182847     0.09830
H744        H  0.69434563  0.05911269  0.72459808     0.08660
N745        N  0.93075587  0.67234387  0.69899682    -0.25720
N746        N  0.92100195  0.64996329  0.70671619    -0.33580
C747        C  0.94175173  0.65819166  0.71543025     0.02620
C748        C  0.96585292  0.68697459  0.71302885     0.08640
C749        C  0.95820247  0.69516469  0.70252809    -0.04460
H750        H  0.94018642  0.64359887  0.72259843     0.09310
H751        H  0.97197217  0.71587817  0.69762977     0.10510
Cu752      Cu  0.88153090  0.60792108  0.70467709     0.44170
Cu753      Cu  0.90730900  0.67079713  0.68366373     0.41990
Cu754      Cu  0.83710836  0.60042581  0.67899720     0.43880
N755        N  0.84100591  0.56849647  0.70044303    -0.33110
N756        N  0.82473630  0.56618567  0.69098428    -0.27370
C757        C  0.79969319  0.53847002  0.69057693    -0.03470
C758        C  0.80026839  0.52262676  0.70024098     0.08750
C759        C  0.82668679  0.54208386  0.70633952     0.02550
H760        H  0.78245351  0.53049737  0.68372365     0.10200
H761        H  0.83487957  0.53746740  0.71442241     0.09280
N762        N  0.85287154  0.63654901  0.66770086    -0.34560
N763        N  0.87864195  0.66254924  0.66923975    -0.26740
C764        C  0.88202350  0.68108023  0.66023221    -0.01980
C765        C  0.85713961  0.66589622  0.65274040     0.06630
C766        C  0.83915350  0.63769730  0.65776755     0.04720
H767        H  0.90110288  0.70390990  0.65922169     0.09830
H768        H  0.81769363  0.61921043  0.65452067     0.08660
N769        N  0.00199515  0.93742789  0.37323924    -0.25720
N770        N  0.03073754  0.95972418  0.37260375    -0.33580
C771        C  0.04869724  0.94808413  0.37236240     0.02620
C772        C  0.03036606  0.91708394  0.37290599     0.08640
C773        C  0.00092068  0.91095416  0.37341290    -0.04460
H774        H  0.07323495  0.96123841  0.37171390     0.09310
H775        H  0.98026375  0.88896675  0.37377653     0.10510
Cu776      Cu  0.04455694  0.00499262  0.37191794     0.44170
Cu777      Cu  0.96565715  0.94414126  0.37380974     0.41990
Cu778      Cu  0.98544725  0.02234867  0.37261303     0.43880
N779        N  0.05297204  0.04857316  0.37131197    -0.33110
N780        N  0.03127067  0.05495138  0.37152059    -0.27370
C781        C  0.04401944  0.08507591  0.37096736    -0.03470
C782        C  0.07513217  0.09807409  0.37042262     0.08750
C783        C  0.08013689  0.07445395  0.37062003     0.02550
H784        H  0.03154067  0.09657122  0.37091082     0.10200
H785        H  0.10181885  0.07589272  0.37021987     0.09280
N786        N  0.94139348  0.98597829  0.37436525    -0.34560
N787        N  0.93408497  0.95748313  0.37480523    -0.26740
C788        C  0.90376336  0.93965337  0.37607595    -0.01980
C789        C  0.89166938  0.95790268  0.37650481     0.06630
C790        C  0.91597854  0.98705034  0.37534473     0.04720
H791        H  0.89149311  0.91526808  0.37659804     0.09830
H792        H  0.91530498  0.00752549  0.37517396     0.08660
N793        N  0.13205285  0.79432228  0.33690889    -0.25720
N794        N  0.13253140  0.81999729  0.33639892    -0.33580
C795        C  0.14855174  0.83591368  0.32691812     0.02620
C796        C  0.15887907  0.81961097  0.32106363     0.08640
C797        C  0.14803379  0.79334074  0.32764536    -0.04460
H798        H  0.15211758  0.85768823  0.32451149     0.09310
H799        H  0.15140728  0.77485397  0.32579202     0.10510
Cu800      Cu  0.11112057  0.83278374  0.34824684     0.44170
Cu801      Cu  0.10914896  0.76238119  0.35035171     0.41990
Cu802      Cu  0.07405564  0.78581182  0.37310908     0.43880
N803        N  0.08667741  0.84161135  0.36017593    -0.33110
N804        N  0.07267403  0.82436007  0.36944837    -0.27370
C805        C  0.05740836  0.83532437  0.37508136    -0.03470
C806        C  0.06231204  0.86060211  0.36898733     0.08750
C807        C  0.08088689  0.86396142  0.35961880     0.02550
H808        H  0.04333100  0.82528393  0.38283152     0.10200
H809        H  0.08903318  0.88093982  0.35273169     0.09280
N810        N  0.07461106  0.74603147  0.37371910    -0.34560
N811        N  0.08564746  0.73664889  0.36529361    -0.26740
C812        C  0.07896624  0.70851977  0.36801084    -0.01980
C813        C  0.06363900  0.70014053  0.37873235     0.06630
C814        C  0.06133259  0.72449354  0.38207735     0.04720
H815        H  0.08456256  0.69500706  0.36252077     0.09830
H816        H  0.04943110  0.72584472  0.38971564     0.08660
N817        N  0.26970097  0.33550393  0.36240799    -0.25720
N818        N  0.25914856  0.31421042  0.37063981    -0.33580
C819        C  0.28062142  0.32191329  0.37901670     0.02620
C820        C  0.30610258  0.34911636  0.37586317     0.08640
C821        C  0.29848408  0.35696562  0.36525146    -0.04460
H822        H  0.27835313  0.30798813  0.38655023     0.09310
H823        H  0.31289381  0.37675043  0.35994258     0.10510
Cu824      Cu  0.21751387  0.27370242  0.36972808     0.44170
Cu825      Cu  0.24457050  0.33453243  0.34760536     0.41990
Cu826      Cu  0.17135421  0.26585682  0.34471348     0.43880
N827        N  0.17669208  0.23407105  0.36589888    -0.33110
N828        N  0.15984981  0.23155728  0.35660868    -0.27370
C829        C  0.13546021  0.20340916  0.35611010    -0.03470
C830        C  0.13704842  0.18745318  0.36553550     0.08750
C831        C  0.16340205  0.20735937  0.37159359     0.02550
H832        H  0.11817276  0.19510096  0.34926746     0.10200
H833        H  0.17248506  0.20270230  0.37940734     0.09280
N834        N  0.18657077  0.30168077  0.33326974    -0.34560
N835        N  0.21329647  0.32702066  0.33414997    -0.26740
C836        C  0.21583094  0.34539978  0.32520014    -0.01980
C837        C  0.18948361  0.33076700  0.31841437     0.06630
C838        C  0.17147161  0.30309906  0.32382443     0.04720
H839        H  0.23541976  0.36769727  0.32370124     0.09830
H840        H  0.14905656  0.28514332  0.32115304     0.08660
N841        N  0.66993300  0.87324364  0.34085177    -0.25720
N842        N  0.69185368  0.86733259  0.34171704    -0.33580
C843        C  0.69325814  0.85422945  0.33170076     0.02620
C844        C  0.67102847  0.85165230  0.32407839     0.08640
C845        C  0.65650566  0.86374376  0.33017434    -0.04460
H846        H  0.70986983  0.84792534  0.33006456     0.09310
H847        H  0.63817128  0.86627622  0.32694312     0.10510
Cu848      Cu  0.72153353  0.88058173  0.35566949     0.44170
Cu849      Cu  0.66170633  0.89585788  0.35415991     0.41990
Cu850      Cu  0.71786012  0.92593790  0.37861976     0.43880
N851        N  0.75598710  0.90414842  0.36760352    -0.33110
N852        N  0.75567932  0.92188896  0.37593291    -0.27370
C853        C  0.78334432  0.93692998  0.38112655    -0.03470
C854        C  0.80141772  0.92786243  0.37574020     0.08750
C855        C  0.78345303  0.90722401  0.36723213     0.02550
H856        H  0.79010249  0.95397855  0.38792829     0.10200
H857        H  0.79025832  0.89639341  0.36080305     0.09280
N858        N  0.67805065  0.92731841  0.37816160    -0.34560
N859        N  0.65873218  0.91770878  0.36912889    -0.26740
C860        C  0.63728218  0.92449879  0.37121712    -0.01980
C861        C  0.64288317  0.93845069  0.38215259     0.06630
C862        C  0.66890448  0.93988613  0.38631962     0.04720
H863        H  0.61913717  0.91999530  0.36511838     0.09830
H864        H  0.68119337  0.95069157  0.39438502     0.08660
N865        N  0.34821225  0.73654451  0.23822351    -0.25720
N866        N  0.31917448  0.71486991  0.23846954    -0.33580
C867        C  0.30202504  0.72741703  0.23838124     0.02620
C868        C  0.32125836  0.75833721  0.23801144     0.08640
C869        C  0.35033304  0.76348202  0.23797552    -0.04460
H870        H  0.27744734  0.71494827  0.23876982     0.09310
H871        H  0.37144775  0.78511572  0.23796389     0.10510
Cu872      Cu  0.30405870  0.66929866  0.23922226     0.44170
Cu873      Cu  0.38359967  0.72860330  0.23841456     0.41990
Cu874      Cu  0.36207754  0.65018397  0.23951479     0.43880
N875        N  0.29480197  0.62544278  0.23999423    -0.33110
N876        N  0.31610854  0.61851202  0.24011999    -0.27370
C877        C  0.30287215  0.58836971  0.24076727    -0.03470
C878        C  0.27185569  0.57593123  0.24102987     0.08750
C879        C  0.26736915  0.59986323  0.24056139     0.02550
H880        H  0.31497065  0.57650502  0.24112641     0.10200
H881        H  0.24587657  0.59884862  0.24073278     0.09280
N882        N  0.40649598  0.68580060  0.23852257    -0.34560
N883        N  0.41443509  0.71447186  0.23814180    -0.26740
C884        C  0.44490467  0.73188611  0.23757745    -0.01980
C885        C  0.45640190  0.71314254  0.23754037     0.06630
C886        C  0.43164355  0.68415268  0.23820932     0.04720
H887        H  0.45765932  0.75630913  0.23734485     0.09830
H888        H  0.43182599  0.66342635  0.23858171     0.08660
N889        N  0.23060148  0.88722142  0.27719972    -0.25720
N890        N  0.23014168  0.86156030  0.27763469    -0.33580
C891        C  0.21456170  0.84574392  0.28720715     0.02620
C892        C  0.20452226  0.86213545  0.29318859     0.08640
C893        C  0.21507652  0.88833274  0.28659447    -0.04460
H894        H  0.21090937  0.82389725  0.28954407     0.09310
H895        H  0.21167124  0.90678099  0.28848955     0.10510
Cu896      Cu  0.25040759  0.84856048  0.26534245     0.44170
Cu897      Cu  0.25246891  0.91868309  0.26357255     0.41990
Cu898      Cu  0.28423054  0.89417863  0.23977529     0.43880
N899        N  0.27228225  0.83857868  0.25263302    -0.33110
N900        N  0.28497500  0.85520847  0.24308911    -0.27370
C901        C  0.29837017  0.84314664  0.23686016    -0.03470
C902        C  0.29358646  0.81780766  0.24285908     0.08750
C903        C  0.27706957  0.81555189  0.25278074     0.02550
H904        H  0.31102795  0.85241688  0.22874107     0.10200
H905        H  0.26954502  0.79877311  0.25972632     0.09280
N906        N  0.28421461  0.93419910  0.23961772    -0.34560
N907        N  0.27439319  0.94389220  0.24838507    -0.26740
C908        C  0.28087811  0.97198895  0.24578092    -0.01980
C909        C  0.29477875  0.98000436  0.23479049     0.06630
C910        C  0.29650515  0.95552278  0.23115078     0.04720
H911        H  0.27598763  0.98565662  0.25150099     0.09830
H912        H  0.30724265  0.95387800  0.22319080     0.08660
N913        N  0.67965159  0.80324798  0.27635433    -0.25720
N914        N  0.65427849  0.80368229  0.27643736    -0.33580
C915        C  0.65146967  0.81434782  0.28685578     0.02620
C916        C  0.67636092  0.82106278  0.29377130     0.08640
C917        C  0.69381793  0.81375486  0.28685597    -0.04460
H918        H  0.63222582  0.81622972  0.28922063     0.09310
H919        H  0.71498096  0.81551955  0.28934357     0.10510
Cu920      Cu  0.62275328  0.78740190  0.26308710     0.44170
Cu921      Cu  0.69190888  0.78686477  0.26195184     0.41990
Cu922      Cu  0.63048430  0.74691545  0.23961811     0.43880
N923        N  0.58926122  0.76410805  0.25078229    -0.33110
N924        N  0.59136118  0.74820996  0.24211146    -0.27370
C925        C  0.56480779  0.73392319  0.23613676    -0.03470
C926        C  0.54550593  0.74150751  0.24141022     0.08750
C927        C  0.56157545  0.76052262  0.25064260     0.02550
H928        H  0.55978337  0.71874200  0.22873712     0.10200
H929        H  0.55350619  0.77030999  0.25702651     0.09280
N930        N  0.67308663  0.75195115  0.23879175    -0.34560
N931        N  0.69546556  0.76696166  0.24651496    -0.26740
C932        C  0.71974453  0.76575236  0.24298597    -0.01980
C933        C  0.71210614  0.74887259  0.23268940     0.06630
C934        C  0.68241260  0.74054704  0.23028004     0.04720
H935        H  0.74100006  0.77549357  0.24780556     0.09830
H936        H  0.66844569  0.72703757  0.22291688     0.08660
N937        N  0.07526199  0.33819685  0.24543254    -0.25720
N938        N  0.08509864  0.36320142  0.23917836    -0.33580
C939        C  0.06401663  0.35881626  0.23111247     0.02620
C940        C  0.03993944  0.32956953  0.23205551     0.08640
C941        C  0.04758163  0.31699647  0.24125954    -0.04460
H942        H  0.06579348  0.37602777  0.22517269     0.09310
H943        H  0.03340565  0.29477569  0.24506480     0.10510
Cu944      Cu  0.12578356  0.40346534  0.24160761     0.44170
Cu945      Cu  0.09895139  0.33561993  0.26012498     0.41990
Cu946      Cu  0.17132197  0.40605409  0.26517688     0.43880
N947        N  0.16740834  0.44160168  0.24531032    -0.33110
N948        N  0.18450162  0.44234417  0.25418766    -0.27370
C949        C  0.20985116  0.46983120  0.25477244    -0.03470
C950        C  0.20850534  0.48707942  0.24579401     0.08750
C951        C  0.18139030  0.46869480  0.23993585     0.02550
H952        H  0.22760864  0.47680666  0.26135481     0.10200
H953        H  0.17229192  0.47461898  0.23247826     0.09280
N954        N  0.15466623  0.36867876  0.27584651    -0.34560
N955        N  0.12858030  0.34292593  0.27429632    -0.26740
C956        C  0.12540129  0.32400808  0.28315437    -0.01980
C957        C  0.15070676  0.33869843  0.29052073     0.06630
C958        C  0.16867209  0.36695503  0.28557284     0.04720
H959        H  0.10614662  0.30127781  0.28417188     0.09830
H960        H  0.19037012  0.38520078  0.28874200     0.08660
N961        N  0.73468317  0.36059997  0.40401396    -0.25720
N962        N  0.72777353  0.38178840  0.40458099    -0.33580
C963        C  0.75359884  0.40899729  0.40516929     0.02620
C964        C  0.77775859  0.40460994  0.40491218     0.08640
C965        C  0.76512576  0.37377674  0.40423005    -0.04460
H966        H  0.75463925  0.43030517  0.40582832     0.09310
H967        H  0.77708911  0.36177412  0.40398744     0.10510
Cu968      Cu  0.68365300  0.37291717  0.40460255     0.44170
Cu969      Cu  0.70240203  0.31481384  0.40293471     0.41990
Cu970      Cu  0.62344122  0.29460984  0.40243752     0.43880
N971        N  0.63788111  0.35866970  0.40443444    -0.33110
N972        N  0.61577152  0.33001194  0.40366289    -0.27370
C973        C  0.58882866  0.32834648  0.40392281    -0.03470
C974        C  0.59442848  0.35732923  0.40486372     0.08750
C975        C  0.62564164  0.37600835  0.40520043     0.02550
H976        H  0.56688158  0.30759228  0.40357102     0.10200
H977        H  0.63853234  0.40034342  0.40606365     0.09280
N978        N  0.63710967  0.26350130  0.40118298    -0.34560
N979        N  0.66584290  0.27082503  0.40139598    -0.26740
C980        C  0.66685151  0.24549613  0.40058149    -0.01980
C981        C  0.63739630  0.22126559  0.39975867     0.06630
C982        C  0.61908610  0.23332681  0.40022319     0.04720
H983        H  0.68745851  0.24479947  0.40076400     0.09830
H984        H  0.59449203  0.22109440  0.40007746     0.08660
N985        N  0.00038838  0.54813945  0.44583950    -0.25720
N986        N  0.97526880  0.52119054  0.44610222    -0.33580
C987        C  0.97474699  0.50659909  0.45599718     0.02620
C988        C  0.00091621  0.52516233  0.46239312     0.08640
C989        C  0.01671058  0.55135089  0.45569131    -0.04460
H990        H  0.95653275  0.48409779  0.45826503     0.09310
H991        H  0.03846228  0.57121522  0.45782443     0.10510
Cu992      Cu  0.94236679  0.50488407  0.43320081     0.44170
Cu993      Cu  0.01011327  0.57824775  0.43177460     0.41990
Cu994      Cu  0.95383197  0.54877679  0.40724780     0.43880
N995        N  0.91010688  0.49177747  0.42014999    -0.33110
N996        N  0.91376671  0.50773589  0.41049235    -0.27370
C997        C  0.88776967  0.49357671  0.40413263    -0.03470
C998        C  0.86719615  0.46760770  0.41016246     0.08750
C999        C  0.88200507  0.46717240  0.42024362     0.02550
H1000       H  0.88395061  0.50189164  0.39592252     0.10200
H1001       H  0.87284208  0.45062591  0.42729631     0.09280
N1002       N  0.99441861  0.59063160  0.40715299    -0.34560
N1003       N  0.01378786  0.60188083  0.41615899    -0.26740
C1004       C  0.03558231  0.63051698  0.41354661    -0.01980
C1005       C  0.03010193  0.63738409  0.40230849     0.06630
C1006       C  0.00383464  0.61157239  0.39852613     0.04720
H1007       H  0.05391503  0.64541137  0.41946251     0.09830
H1008       H  0.99153413  0.60876441  0.39036746     0.08660
N1009       N  0.46031300  0.44630199  0.44230006    -0.25720
N1010       N  0.48705472  0.44866697  0.44306138    -0.33580
C1011       C  0.50195668  0.46505788  0.45267694     0.02620
C1012       C  0.48376771  0.47357489  0.45831584     0.08640
C1013       C  0.45754162  0.46130601  0.45148377    -0.04460
H1014       H  0.52434495  0.47020348  0.45530752     0.09310
H1015       H  0.43788609  0.46314761  0.45308681     0.10510
Cu1016     Cu  0.50229390  0.42932743  0.43117604     0.44170
Cu1017     Cu  0.42946176  0.42269837  0.42860711     0.41990
Cu1018     Cu  0.45615875  0.39177155  0.40560967     0.43880
N1019       N  0.51303630  0.40686520  0.41893127    -0.33110
N1020       N  0.49624197  0.39286637  0.40949923    -0.27370
C1021       C  0.50881636  0.37934682  0.40370396    -0.03470
C1022       C  0.53464882  0.38533982  0.40983408     0.08750
C1023       C  0.53667373  0.40276262  0.41940843     0.02550
H1024       H  0.49952623  0.36573920  0.39578622     0.10200
H1025       H  0.55368282  0.41131922  0.42636136     0.09280
N1026       N  0.41505610  0.39037392  0.40484021    -0.34560
N1027       N  0.40466004  0.39996888  0.41342746    -0.26740
C1028       C  0.37622930  0.39280466  0.41062923    -0.01980
C1029       C  0.36865864  0.37871472  0.39967357     0.06630
C1030       C  0.39379214  0.37754822  0.39626178     0.04720
H1031       H  0.36202328  0.39737960  0.41619919     0.09830
H1032       H  0.39589643  0.36682638  0.38840243     0.08660
N1033       N  0.54515879  0.00884335  0.44229589    -0.25720
N1034       N  0.53942924  0.03025790  0.43977728    -0.33580
C1035       C  0.52560841  0.03439572  0.44899532     0.02620
C1036       C  0.52230421  0.01477067  0.45788294     0.08640
C1037       C  0.53488378  0.99869311  0.45335499    -0.04460
H1038       H  0.51927697  0.05122498  0.44932678     0.09310
H1039       H  0.53695535  0.98138450  0.45779983     0.10510
Cu1040     Cu  0.55367105  0.05621429  0.42475359     0.44170
Cu1041     Cu  0.56805114  0.99647158  0.43031717     0.41990
Cu1042     Cu  0.59850339  0.04671949  0.40391857     0.43880
N1043       N  0.57823546  0.08801076  0.41207478    -0.33110
N1044       N  0.59600260  0.08537862  0.40439421    -0.27370
C1045       C  0.61233577  0.11168090  0.39849327    -0.03470
C1046       C  0.60407381  0.13141038  0.40274650     0.08750
C1047       C  0.58255216  0.11575824  0.41132823     0.02550
H1048       H  0.62985588  0.11650537  0.39206628     0.10200
H1049       H  0.57214156  0.12443763  0.41711643     0.09280
N1050       N  0.59946263  0.00752415  0.40632775    -0.34560
N1051       N  0.59010927  0.99022177  0.41591032    -0.26740
C1052       C  0.59711196  0.96867532  0.41467036    -0.01980
C1053       C  0.61090292  0.97230244  0.40374846     0.06630
C1054       C  0.61194280  0.99710122  0.39872955     0.04720
H1055       H  0.59267992  0.95172402  0.42126833     0.09830
H1056       H  0.62232310  0.00772987  0.39038493     0.08660
N1057       N  0.34714267  0.73038524  0.54277612    -0.25720
N1058       N  0.37586097  0.73765079  0.54256688    -0.33580
C1059       C  0.39399518  0.76790245  0.54322675     0.02620
C1060       C  0.37577156  0.78007097  0.54392728     0.08640
C1061       C  0.34625803  0.75579215  0.54357298    -0.04460
H1062       H  0.41858931  0.78009272  0.54314625     0.09310
H1063       H  0.32565594  0.75648385  0.54382918     0.10510
Cu1064     Cu  0.38914858  0.70610392  0.54145534     0.44170
Cu1065     Cu  0.31031019  0.68628325  0.54211335     0.41990
Cu1066     Cu  0.32801495  0.62752741  0.54099027     0.43880
N1067       N  0.39611454  0.67007823  0.54063395    -0.33110
N1068       N  0.37371747  0.64144897  0.54048646    -0.27370
C1069       C  0.38554668  0.62372418  0.53985757    -0.03470
C1070       C  0.41679600  0.64207898  0.53962712     0.08750
C1071       C  0.42283589  0.67129713  0.54009708     0.02550
H1072       H  0.37233128  0.59931346  0.53948024     0.10200
H1073       H  0.44492913  0.69189726  0.53995253     0.09280
N1074       N  0.28402458  0.61900932  0.54168475    -0.34560
N1075       N  0.27750029  0.64048862  0.54205664    -0.26740
C1076       C  0.24710310  0.62761281  0.54246481    -0.01980
C1077       C  0.23407546  0.59666806  0.54239116     0.06630
C1078       C  0.25798277  0.59190515  0.54184660     0.04720
H1079       H  0.23541645  0.63988385  0.54274486     0.09830
H1080       H  0.25661258  0.57040222  0.54152871     0.08660
N1081       N  0.47098655  0.99845246  0.50576373    -0.25720
N1082       N  0.47663239  0.97687612  0.50805087    -0.33580
C1083       C  0.49077417  0.97334458  0.49880685     0.02620
C1084       C  0.49438851  0.99352035  0.49012059     0.08640
C1085       C  0.48165722  0.00932603  0.49479979    -0.04460
H1086       H  0.49694992  0.95641732  0.49828523     0.09310
H1087       H  0.47967603  0.02685119  0.49049884     0.10510
Cu1088     Cu  0.46131553  0.94939197  0.52261388     0.44170
Cu1089     Cu  0.44746020  0.00963023  0.51796907     0.41990
Cu1090     Cu  0.41394070  0.95535456  0.54323201     0.43880
N1091       N  0.43511878  0.91532574  0.53425503    -0.33110
N1092       N  0.41629760  0.91651484  0.54183515    -0.27370
C1093       C  0.39938544  0.88916518  0.54698005    -0.03470
C1094       C  0.40836851  0.87030057  0.54232721     0.08750
C1095       C  0.43092155  0.88756691  0.53430300     0.02550
H1096       H  0.38115818  0.88315386  0.55320666     0.10200
H1097       H  0.44231231  0.88009914  0.52844187     0.09280
N1098       N  0.41424589  0.99563454  0.54175054    -0.34560
N1099       N  0.42471220  0.01431250  0.53257054    -0.26740
C1100       C  0.41835392  0.03619072  0.53430216    -0.01980
C1101       C  0.40381938  0.03140632  0.54513107     0.06630
C1102       C  0.40170031  0.00554486  0.54958267     0.04720
H1103       H  0.42371465  0.05417605  0.52808715     0.09830
H1104       H  0.39052573  0.99390273  0.55768207     0.08660
N1105       N  0.54718706  0.54876299  0.50215439    -0.25720
N1106       N  0.52033040  0.54620891  0.50156312    -0.33580
C1107       C  0.50506080  0.52945491  0.49206093     0.02620
C1108       C  0.52313594  0.52092303  0.48633476     0.08640
C1109       C  0.54965050  0.53352774  0.49299062    -0.04460
H1110       H  0.48255339  0.52415473  0.48953847     0.09310
H1111       H  0.56936756  0.53188254  0.49124821     0.10510
Cu1112     Cu  0.50557048  0.56608137  0.51344269     0.44170
Cu1113     Cu  0.57900353  0.57329575  0.51544424     0.41990
Cu1114     Cu  0.55384737  0.60596059  0.53822105     0.43880
N1115       N  0.49574378  0.58955361  0.52558310    -0.33110
N1116       N  0.51336773  0.60439806  0.53472923    -0.27370
C1117       C  0.50142486  0.61860100  0.54046594    -0.03470
C1118       C  0.47511489  0.61218421  0.53460503     0.08750
C1119       C  0.47216972  0.59378675  0.52524190     0.02550
H1120       H  0.51152629  0.63305230  0.54812734     0.10200
H1121       H  0.45463870  0.58475232  0.51848958     0.09280
N1122       N  0.59539939  0.60826903  0.53858540    -0.34560
N1123       N  0.60523264  0.59793470  0.53006833    -0.26740
C1124       C  0.63416081  0.60609717  0.53248980    -0.01980
C1125       C  0.64267950  0.62172534  0.54312370     0.06630
C1126       C  0.61753806  0.62262877  0.54674206     0.04720
H1127       H  0.64805360  0.60119423  0.52687611     0.09830
H1128       H  0.61595298  0.63417139  0.55443907     0.08660
N1129       N  0.00449640  0.46165580  0.50712047    -0.25720
N1130       N  0.02963438  0.48859291  0.50693344    -0.33580
C1131       C  0.02963126  0.50387041  0.49733920     0.02620
C1132       C  0.00309209  0.48575319  0.49107394     0.08640
C1133       C  0.98762448  0.45914053  0.49753877    -0.04460
H1134       H  0.04794034  0.52633900  0.49508625     0.09310
H1135       H  0.96591227  0.43929888  0.49534196     0.10510
Cu1136     Cu  0.06383025  0.50325297  0.51924757     0.44170
Cu1137     Cu  0.99596259  0.43019227  0.52049637     0.41990
Cu1138     Cu  0.05570933  0.45560986  0.54361590     0.43880
N1139       N  0.09827324  0.51378041  0.53107365    -0.33110
N1140       N  0.09597150  0.49643488  0.54008505    -0.27370
C1141       C  0.12326768  0.50906506  0.54553597    -0.03470
C1142       C  0.14325253  0.53547788  0.53959653     0.08750
C1143       C  0.12673134  0.53774137  0.53051054     0.02550
H1144       H  0.12832279  0.49941015  0.55303736     0.10200
H1145       H  0.13494327  0.55507302  0.52376321     0.09280
N1146       N  0.01427999  0.41435979  0.54386754    -0.34560
N1147       N  0.99366574  0.40460727  0.53528239    -0.26740
C1148       C  0.97163794  0.37590012  0.53765223    -0.01980
C1149       C  0.97824387  0.36739263  0.54832559     0.06630
C1150       C  0.00542040  0.39233656  0.55201822     0.04720
H1151       H  0.95238261  0.36205374  0.53193070     0.09830
H1152       H  0.01867039  0.39377308  0.55971923     0.08660
C1153       C  0.38559815  0.81161955  0.54436048    -0.11710
C1154       C  0.39498330  0.83833561  0.54404684    -0.13270
C1155       C  0.45563898  0.62369366  0.53709638    -0.11710
C1156       C  0.43837273  0.63255592  0.53850606    -0.13270
C1157       C  0.20214102  0.57409776  0.54232700    -0.11710
C1158       C  0.17524538  0.55577763  0.54164409    -0.13270
C1159       C  0.50910041  0.01346899  0.46967627    -0.14870
C1160       C  0.50774208  0.99517701  0.47833374    -0.30040
H1161       H  0.50038080  0.02820062  0.47123402     0.14160
H1162       H  0.51644357  0.98043878  0.47675641     0.14730
C1163       C  0.51645345  0.50269348  0.47540465    -0.14870
C1164       C  0.49028762  0.49170955  0.46926983    -0.30040
H1165       H  0.53378802  0.49838558  0.47236104     0.14160
H1166       H  0.47296336  0.49604881  0.47230150     0.14730
C1167       C  0.01044386  0.51872782  0.47384958    -0.14870
C1168       C  0.99338073  0.49248956  0.47973040    -0.30040
H1169       H  0.03217453  0.53611084  0.47744172     0.14160
H1170       H  0.97164944  0.47511352  0.47613795     0.14730
C1171       C  0.83598090  0.44622357  0.40725327    -0.11710
C1172       C  0.80947735  0.42739048  0.40583112    -0.13270
C1173       C  0.61777856  0.16306548  0.40032943    -0.11710
C1174       C  0.62752217  0.18976112  0.39958655    -0.13270
C1175       C  0.57241180  0.36626339  0.40592536    -0.11710
C1176       C  0.55467157  0.37452711  0.40731557    -0.13270
C1177       C  0.31269708  0.78052489  0.23863757    -0.11710
C1178       C  0.30458635  0.79828281  0.23996649    -0.13270
C1179       C  0.51422244  0.73029156  0.23875486    -0.11710
C1180       C  0.48778299  0.72208237  0.23773678    -0.13270
C1181       C  0.24903854  0.54457786  0.24215922    -0.11710
C1182       C  0.23026335  0.51826650  0.24352252    -0.13270
C1183       C  0.66479253  0.84008562  0.31182705    -0.14870
C1184       C  0.68266216  0.83246245  0.30605375    -0.30040
H1185       H  0.64521382  0.83840943  0.30743922     0.14160
H1186       H  0.70264976  0.83480183  0.31034484     0.14730
C1187       C  0.62458820  0.95549628  0.39897803    -0.14870
C1188       C  0.62691570  0.95264056  0.38723711    -0.30040
H1189       H  0.63274997  0.94527455  0.40518024     0.14160
H1190       H  0.61640266  0.96064913  0.38109232     0.14730
C1191       C  0.18278000  0.34263457  0.30767394    -0.14870
C1192       C  0.15693200  0.32655205  0.30131673    -0.30040
H1193       H  0.19991384  0.36526749  0.30494857     0.14160
H1194       H  0.13987191  0.30383131  0.30399112     0.14730
C1195       C  0.33877168  0.36473961  0.39368340    -0.14870
C1196       C  0.33610908  0.36473259  0.38182246    -0.30040
H1197       H  0.31852586  0.35491841  0.39917366     0.14160
H1198       H  0.35635135  0.37697003  0.37638108     0.14730
C1199       C  0.17719541  0.82787558  0.31008200    -0.14870
C1200       C  0.18636442  0.85388516  0.30420522    -0.30040
H1201       H  0.18310618  0.81197362  0.30679689     0.14160
H1202       H  0.18046560  0.86979093  0.30749348     0.14730
C1203       C  0.04644014  0.66723799  0.39642529    -0.14870
C1204       C  0.04945576  0.67025023  0.38457270    -0.30040
H1205       H  0.05663531  0.68724313  0.40200558     0.14160
H1206       H  0.04165806  0.65040065  0.37903826     0.14730
C1207       C  0.04011597  0.89574795  0.37235522    -0.11710
C1208       C  0.04957283  0.87897608  0.37129411    -0.13270
C1209       C  0.11605575  0.15610618  0.36801219    -0.11710
C1210       C  0.09760729  0.12964544  0.36936829    -0.13270
C1211       C  0.86009931  0.94842878  0.37733990    -0.11710
C1212       C  0.83338702  0.93981181  0.37728125    -0.13270
C1213       C  0.77795235  0.49194126  0.70308010    -0.11710
C1214       C  0.75877156  0.46590564  0.70479093    -0.13270
C1215       C  0.70505337  0.23470115  0.70831343    -0.11710
C1216       C  0.71382672  0.21757804  0.70681915    -0.13270
C1217       C  0.52210257  0.28069865  0.71456614    -0.11710
C1218       C  0.49508713  0.27017686  0.71396420    -0.13270
C1219       C  0.82595905  0.66185860  0.63530364    -0.14870
C1220       C  0.85153149  0.67780752  0.64177867    -0.30040
H1221       H  0.80841359  0.63941700  0.63807211     0.14160
H1222       H  0.86890925  0.70039102  0.63908893     0.14730
C1223       C  0.67659399  0.63930609  0.56055951    -0.14870
C1224       C  0.67311651  0.63687949  0.54872623    -0.30040
H1225       H  0.65669819  0.62821363  0.56623667     0.14160
H1226       H  0.69293805  0.64546996  0.54305287     0.14730
C1227       C  0.38748404  0.05009304  0.56199350    -0.14870
C1228       C  0.39036322  0.04822412  0.55021004    -0.30040
H1229       H  0.39728824  0.04107711  0.56800568     0.14160
H1230       H  0.38297373  0.05946136  0.54417700     0.14730
C1231       C  0.35042627  0.15981055  0.63931248    -0.14870
C1232       C  0.33346088  0.16905215  0.64478118    -0.30040
H1233       H  0.36913639  0.16029409  0.64396004     0.14160
H1234       H  0.31472793  0.16850354  0.64013664     0.14730
C1235       C  0.83042296  0.17136688  0.63809620    -0.14870
C1236       C  0.82155938  0.14591421  0.64433297    -0.30040
H1237       H  0.82522628  0.18784616  0.64128727     0.14160
H1238       H  0.82682819  0.12944120  0.64117321     0.14730
C1239       C  0.95901307  0.33235905  0.56541869    -0.14870
C1240       C  0.96203634  0.33681952  0.55362883    -0.30040
H1241       H  0.96678575  0.35153117  0.57134184     0.14160
H1242       H  0.95176571  0.31751270  0.54767784     0.14730
C1243       C  0.97276800  0.10856872  0.57628394    -0.11710
C1244       C  0.96237998  0.12459994  0.57728579    -0.13270
C1245       C  0.15606886  0.05881990  0.57266102    -0.11710
C1246       C  0.18266990  0.06681470  0.57299358    -0.13270
C1247       C  0.89882522  0.84897373  0.57502758    -0.11710
C1248       C  0.91763507  0.87555655  0.57420611    -0.13270
C1249       C  0.84077995  0.39792580  0.89983917    -0.11710
C1250       C  0.81398877  0.38854238  0.89907600    -0.13270
C1251       C  0.55685367  0.17967654  0.90432751    -0.11710
C1252       C  0.57563199  0.20605915  0.90305775    -0.13270
C1253       C  0.63420620  0.43984760  0.90619021    -0.11710
C1254       C  0.62529106  0.45685178  0.90783848    -0.13270
C1255       C  0.00487548  0.50250799  0.96811387    -0.14870
C1256       C  0.98781448  0.51197277  0.97331474    -0.30040
H1257       H  0.02407325  0.50404718  0.97277336     0.14160
H1258       H  0.96856713  0.51037758  0.96866679     0.14730
C1259       C  0.49355152  0.48988828  0.97618577    -0.14870
C1260       C  0.50414485  0.51581877  0.97015164    -0.30040
H1261       H  0.49843095  0.47302349  0.97318630     0.14160
H1262       H  0.49929521  0.53269488  0.97316048     0.14730
C1263       C  0.51337471  0.01497602  0.97352886    -0.14870
C1264       C  0.48752280  0.99847032  0.96722978    -0.30040
H1265       H  0.53034550  0.03759374  0.97071171     0.14160
H1266       H  0.47044791  0.97596299  0.97010823     0.14730
C1267       C  0.42103856  0.80040372  0.03422829    -0.11710
C1268       C  0.44006736  0.82664537  0.03287078    -0.13270
C1269       C  0.15570273  0.61358499  0.04012219    -0.11710
C1270       C  0.18230609  0.62202119  0.04066042    -0.13270
C1271       C  0.36808296  0.54825427  0.03587249    -0.11710
C1272       C  0.35912372  0.56543953  0.03679793    -0.13270
C1273       C  0.71801700  0.71388433  0.22010448    -0.14870
C1274       C  0.73093860  0.73974844  0.22626586    -0.30040
H1275       H  0.69345190  0.69906469  0.21997607     0.14160
H1276       H  0.75547764  0.75299573  0.22739425     0.14730
C1277       C  0.99875259  0.29351263  0.21873777    -0.14870
C1278       C  0.01053690  0.31757528  0.22598779    -0.30040
H1279       H  0.01054905  0.28144017  0.21752121     0.14160
H1280       H  0.00036069  0.33131848  0.22638607     0.14730
C1281       C  0.30882849  0.01203215  0.21697431    -0.14870
C1282       C  0.30792791  0.00958404  0.22884834    -0.30040
H1283       H  0.29775317  0.99181130  0.21151514     0.14160
H1284       H  0.31655556  0.02964688  0.23432787     0.14730
C1285       C  0.77669974  0.31169752  0.20477207    -0.11710
C1286       C  0.79447265  0.30374283  0.20299932    -0.13270
C1287       C  0.72497733  0.48931134  0.20979767    -0.11710
C1288       C  0.73472476  0.51594448  0.20909662    -0.13270
C1289       C  0.54075870  0.25285760  0.20439956    -0.11710
C1290       C  0.51423986  0.23405051  0.20315545    -0.13270
C1291       C  0.94856550  0.62779627  0.06067162    -0.14870
C1292       C  0.95000747  0.62556629  0.04886732    -0.30040
H1293       H  0.95720683  0.61727937  0.06649409     0.14160
H1294       H  0.93906180  0.63378803  0.04305515     0.14730
C1295       C  0.84225553  0.66883734  0.13750052    -0.14870
C1296       C  0.83463699  0.68639935  0.14346663    -0.30040
H1297       H  0.84070850  0.64934434  0.14172267     0.14160
H1298       H  0.83646947  0.70607725  0.13928466     0.14730
C1299       C  0.32724000  0.15873933  0.14181847    -0.14870
C1300       C  0.34273063  0.18493602  0.13582550    -0.30040
H1301       H  0.30485623  0.14114699  0.13884725     0.14160
H1302       H  0.36511842  0.20251682  0.13879399     0.14730
C1303       C  0.36329878  0.33502025  0.06199560    -0.14870
C1304       C  0.36437542  0.33764122  0.05015070    -0.30040
H1305       H  0.37442966  0.35510076  0.06753262     0.14160
H1306       H  0.35574297  0.31766851  0.04461346     0.14730
C1307       C  0.84738239  0.17894727  0.14093182    -0.14870
C1308       C  0.82240666  0.17163018  0.13447570    -0.30040
H1309       H  0.86260427  0.17158413  0.13813802     0.14160
H1310       H  0.80713414  0.17892270  0.13728493     0.14730
C1311       C  0.67045768  0.05332918  0.05716894    -0.14870
C1312       C  0.65963463  0.02988037  0.04963663    -0.30040
H1313       H  0.65765456  0.06428136  0.05867553     0.14160
H1314       H  0.67092317  0.01723984  0.04883042     0.14730
C1315       C  0.87623298  0.04589846  0.07339788    -0.11710
C1316       C  0.89366340  0.03735418  0.07193590    -0.13270
C1317       C  0.12960985  0.09651797  0.07294684    -0.11710
C1318       C  0.15620297  0.11493945  0.07427975    -0.13270
C1319       C  0.93853305  0.83323193  0.06957231    -0.11710
C1320       C  0.94745816  0.85974060  0.06890994    -0.13270
C1321       C  0.70398238  0.98581759  0.72546126    -0.14870
C1322       C  0.69265545  0.00293390  0.72239487    -0.30040
H1323       H  0.72758695  0.99337893  0.72363026     0.14160
H1324       H  0.67013488  0.99675578  0.72544764     0.14730
C1325       C  0.28607338  0.28153435  0.73096721    -0.14870
C1326       C  0.28860845  0.27903501  0.71924304    -0.30040
H1327       H  0.29378249  0.27080320  0.73712592     0.14160
H1328       H  0.27857880  0.28750279  0.71307413     0.14730
C1329       C  0.99562270  0.70333645  0.71908196    -0.14870
C1330       C  0.99887081  0.69999369  0.73069330    -0.30040
H1331       H  0.01551205  0.71834777  0.71381373     0.14160
H1332       H  0.97904393  0.68705753  0.73628119     0.14730
C1333       C  0.46243887  0.75358205  0.74123838    -0.11710
C1334       C  0.48843752  0.77336372  0.74283284    -0.13270
C1335       C  0.22563341  0.68818082  0.73851579    -0.11710
C1336       C  0.20866652  0.69742452  0.73950121    -0.13270
C1337       C  0.27639050  0.48804803  0.73677962    -0.11710
C1338       C  0.28505873  0.51448566  0.73605996    -0.13270
C1339       C  0.65709792  0.82227454  0.81103481    -0.14870
C1340       C  0.67339856  0.84802735  0.80486125    -0.30040
H1341       H  0.63461658  0.80492885  0.80805420     0.14160
H1342       H  0.69608788  0.86515393  0.80772779     0.14730
C1343       C  0.63490221  0.67231231  0.88477029    -0.14870
C1344       C  0.63355568  0.66960426  0.89660570    -0.30040
H1345       H  0.62354019  0.65229555  0.87920316     0.14160
H1346       H  0.64245034  0.68954290  0.90217976     0.14730
C1347       C  0.04662132  0.38611230  0.89520966    -0.14870
C1348       C  0.04918454  0.38357227  0.88349399    -0.30040
H1349       H  0.05676027  0.37780559  0.90140049     0.14160
H1350       H  0.04139919  0.39420753  0.87732177     0.14730
C1351       C  0.16365550  0.34196958  0.80986487    -0.14870
C1352       C  0.17269642  0.32469653  0.80460533    -0.30040
H1353       H  0.16505017  0.36089824  0.80519325     0.14160
H1354       H  0.17123999  0.30573128  0.80926875     0.14730
C1355       C  0.15991634  0.84075989  0.80745528    -0.14870
C1356       C  0.17501821  0.83169116  0.80074835    -0.30040
H1357       H  0.13706246  0.83474521  0.80493921     0.14160
H1358       H  0.19780913  0.83760206  0.80330294     0.14730
C1359       C  0.33769033  0.96834194  0.89103874    -0.14870
C1360       C  0.33448232  0.96626943  0.87917497    -0.30040
H1361       H  0.31763983  0.95757205  0.89664496     0.14160
H1362       H  0.35433095  0.97466448  0.87353051     0.14730
C1363       C  0.12369172  0.96629777  0.87234540    -0.11710
C1364       C  0.10668147  0.97543607  0.87349617    -0.13270
C1365       C  0.04896109  0.15010133  0.87660572    -0.11710
C1366       C  0.05797338  0.17666383  0.87619729    -0.13270
C1367       C  0.84313572  0.89290299  0.87210854    -0.11710
C1368       C  0.86969403  0.91178949  0.87309033    -0.13270
loop_ 
_geom_bond_atom_site_label_1 
_geom_bond_atom_site_label_2 
_geom_bond_distance 
_geom_bond_site_symmetry_2 
_ccdc_geom_bond_type 
N1            N2   1.323       .  A
N1            C5   1.344       .  A
N1           Cu9   2.070   1_565  S
N2            C3   1.344       .  A
N2           Cu8   2.063       .  S
C3            C4   1.377       .  A
C3            H6   1.082       .  S
C4            C5   1.379       .  A
C4         C1368   1.432       .  S
C5            H7   1.082       .  S
Cu8          N11   2.063   1_655  S
Cu9          N19   2.071   1_655  S
Cu10         N12   2.071       .  S
Cu10         N18   2.072       .  S
N11          N12   1.323   1_565  A
N11          C15   1.343       .  A
N12          C13   1.345       .  A
C13          C14   1.379   1_545  A
C13          H16   1.082       .  S
C14          C15   1.377       .  A
C14        C1364   1.432       .  S
C15          H17   1.082       .  S
N18          N19   1.323       .  A
N18          C22   1.345       .  A
N19          C20   1.345       .  A
C20          C21   1.379       .  A
C20          H23   1.082   1_455  S
C21          C22   1.379       .  A
C21        C1365   1.435       .  S
C22          H24   1.082       .  S
N25          N26   1.322       .  A
N25          C29   1.351       .  A
N25         Cu33   2.105       .  S
N26          C27   1.339       .  A
N26         Cu32   2.041       .  S
C27          C28   1.373       .  A
C27          H30   1.083       .  S
C28          C29   1.395       .  A
C28        C1355   1.477       .  S
C29          H31   1.081       .  S
Cu32         N35   2.042       .  S
Cu33         N43   2.107       .  S
Cu34         N36   2.069       .  S
Cu34         N42   2.071       .  S
N35          N36   1.319       .  A
N35          C39   1.340       .  A
N36          C37   1.347       .  A
C37          C38   1.382       .  A
C37          H40   1.082       .  S
C38          C39   1.374       .  A
C38        C1363   1.431       .  S
C39          H41   1.082       .  S
N42          N43   1.326       .  A
N42          C46   1.343       .  A
N43          C44   1.351       .  A
C44          C45   1.387       .  A
C44          H47   1.082       .  S
C45          C46   1.380       .  A
C45        C1360   1.479       .  S
C46          H48   1.082       .  S
N49          N50   1.320       .  A
N49          C53   1.346       .  A
N49         Cu57   2.076       .  S
N50          C51   1.340       .  A
N50         Cu56   2.047       .  S
C51          C52   1.381       .  A
C51          H54   1.081       .  S
C52          C53   1.385       .  A
C52        C1351   1.473       .  S
C53          H55   1.082       .  S
Cu56         N59   2.048       .  S
Cu57         N67   2.078       .  S
Cu58         N60   2.083       .  S
Cu58         N66   2.084       .  S
N59          N60   1.321       .  A
N59          C63   1.340       .  A
N60          C61   1.349       .  A
C61          C62   1.384       .  A
C61          H64   1.082       .  S
C62          C63   1.374       .  A
C62        C1366   1.435       .  S
C63          H65   1.083       .  S
N66          N67   1.325       .  A
N66          C70   1.346       .  A
N67          C68   1.345       .  A
C68          C69   1.380       .  A
C68          H71   1.082       .  S
C69          C70   1.384       .  A
C69        C1348   1.473       .  S
C70          H72   1.082       .  S
N73          N74   1.320       .  A
N73          C77   1.345       .  A
N73         Cu81   2.073       .  S
N74          C75   1.339       .  A
N74         Cu80   2.046       .  S
C75          C76   1.381       .  A
C75          H78   1.081       .  S
C76          C77   1.384       .  A
C76        C1339   1.471       .  S
C77          H79   1.082       .  S
Cu80         N83   2.046       .  S
Cu81         N91   2.075       .  S
Cu82         N84   2.076       .  S
Cu82         N90   2.077       .  S
N83          N84   1.321       .  A
N83          C87   1.340       .  A
N84          C85   1.347       .  A
C85          C86   1.382       .  A
C85          H88   1.082       .  S
C86          C87   1.374       .  A
C86        C1367   1.432       .  S
C87          H89   1.083       .  S
N90          N91   1.324       .  A
N90          C94   1.344       .  A
N91          C92   1.345       .  A
C92          C93   1.380       .  A
C92          H95   1.082       .  S
C93          C94   1.382       .  A
C93        C1343   1.470       .  S
C94          H96   1.082       .  S
N97          N98   1.322       .  A
N97         C101   1.345       .  A
N97        Cu105   2.071       .  S
N98          C99   1.343       .  A
N98        Cu104   2.061       .  S
C99         C100   1.377       .  A
C99         H102   1.082       .  S
C100        C101   1.379       .  A
C100       C1335   1.432       .  S
C101        H103   1.082       .  S
Cu104       N107   2.060       .  S
Cu105       N115   2.072       .  S
Cu106       N108   2.071       .  S
Cu106       N114   2.071       .  S
N107        N108   1.322       .  A
N107        C111   1.343       .  A
N108        C109   1.345       .  A
C109        C110   1.379       .  A
C109        H112   1.082       .  S
C110        C111   1.376       .  A
C110       C1333   1.432       .  S
C111        H113   1.082       .  S
N114        N115   1.323       .  A
N114        C118   1.345       .  A
N115        C116   1.345       .  A
C116        C117   1.379       .  A
C116        H119   1.082       .  S
C117        C118   1.378       .  A
C117       C1338   1.435       .  S
C118        H120   1.082       .  S
N121        N122   1.321       .  A
N121        C125   1.351       .  A
N121       Cu129   2.100       .  S
N122        C123   1.339       .  A
N122       Cu128   2.042       .  S
C123        C124   1.373       .  A
C123        H126   1.082       .  S
C124        C125   1.394       .  A
C124       C1356   1.476       .  S
C125        H127   1.081       .  S
Cu128       N131   2.043       .  S
Cu129       N139   2.100       .  S
Cu130       N132   2.072       .  S
Cu130       N138   2.074       .  S
N131        N132   1.320       .  A
N131        C135   1.340       .  A
N132        C133   1.347       .  A
C133        C134   1.382       .  A
C133        H136   1.082       .  S
C134        C135   1.375       .  A
C134       C1336   1.432       .  S
C135        H137   1.083       .  S
N138        N139   1.326       .  A
N138        C142   1.344       .  A
N139        C140   1.349       .  A
C140        C141   1.384       .  A
C140        H143   1.082       .  S
C141        C142   1.379       .  A
C141       C1330   1.474   1_455  S
C142        H144   1.083       .  S
N145        N146   1.320       .  A
N145        C149   1.346       .  A
N145       Cu153   2.077       .  S
N146        C147   1.340       .  A
N146       Cu152   2.047       .  S
C147        C148   1.381       .  A
C147        H150   1.081       .  S
C148        C149   1.385       .  A
C148       C1352   1.473       .  S
C149        H151   1.082       .  S
Cu152       N155   2.048       .  S
Cu153       N163   2.079       .  S
Cu154       N156   2.082       .  S
Cu154       N162   2.083       .  S
N155        N156   1.321       .  A
N155        C159   1.340       .  A
N156        C157   1.348       .  A
C157        C158   1.384       .  A
C157        H160   1.082       .  S
C158        C159   1.374       .  A
C158       C1337   1.434       .  S
C159        H161   1.083       .  S
N162        N163   1.325       .  A
N162        C166   1.346       .  A
N163        C164   1.345       .  A
C164        C165   1.381       .  A
C164        H167   1.083       .  S
C165        C166   1.384       .  A
C165       C1325   1.474       .  S
C166        H168   1.082       .  S
N169        N170   1.324       .  A
N169        C173   1.346       .  A
N169       Cu177   2.077       .  S
N170        C171   1.344       .  A
N170       Cu176   2.078       .  S
C171        C172   1.383       .  A
C171        H174   1.082       .  S
C172        C173   1.381       .  A
C172       C1321   1.473       .  S
C173        H175   1.082       .  S
Cu176       N179   2.076       .  S
Cu177       N187   2.076       .  S
Cu178       N180   2.045       .  S
Cu178       N186   2.045       .  S
N179        N180   1.321       .  A
N179        C183   1.347       .  A
N180        C181   1.341       .  A
C181        C182   1.374       .  A
C181        H184   1.083       .  S
C182        C183   1.382       .  A
C182       C1334   1.431       .  S
C183        H185   1.082       .  S
N186        N187   1.320       .  A
N186        C190   1.339       .  A
N187        C188   1.346       .  A
C188        C189   1.385       .  A
C188        H191   1.082       .  S
C189        C190   1.381       .  A
C189       C1340   1.471       .  S
C190        H192   1.081       .  S
N193        N194   1.323       .  A
N193        C197   1.344       .  A
N193       Cu201   2.069   1_545  S
N194        C195   1.344       .  A
N194       Cu200   2.066       .  S
C195        C196   1.378       .  A
C195        H198   1.082       .  S
C196        C197   1.379       .  A
C196       C1317   1.433       .  S
C197        H199   1.082       .  S
Cu200       N203   2.066   1_455  S
Cu201       N211   2.069   1_455  S
Cu202       N204   2.072   1_565  S
Cu202       N210   2.073       .  S
N203        N204   1.323       .  A
N203        C207   1.344       .  A
N204        C205   1.345   1_545  A
C205        C206   1.379   1_565  A
C205        H208   1.082       .  S
C206        C207   1.378       .  A
C206       C1316   1.433       .  S
C207        H209   1.082       .  S
N210        N211   1.323       .  A
N210        C214   1.345       .  A
N211        C212   1.345       .  A
C212        C213   1.378       .  A
C212        H215   1.082   1_655  S
C213        C214   1.379       .  A
C213       C1320   1.435       .  S
C214        H216   1.082       .  S
N217        N218   1.322       .  A
N217        C221   1.348       .  A
N217       Cu225   2.093       .  S
N218        C219   1.341       .  A
N218       Cu224   2.053       .  S
C219        C220   1.381       .  A
C219        H222   1.081       .  S
C220        C221   1.388       .  A
C220       C1308   1.478       .  S
C221        H223   1.082       .  S
Cu224       N227   2.053       .  S
Cu225       N235   2.094       .  S
Cu226       N228   2.070       .  S
Cu226       N234   2.071       .  S
N227        N228   1.320       .  A
N227        C231   1.342       .  A
N228        C229   1.346       .  A
C229        C230   1.381       .  A
C229        H232   1.082       .  S
C230        C231   1.376       .  A
C230       C1315   1.433       .  S
C231        H233   1.082       .  S
N234        N235   1.324       .  A
N234        C238   1.342       .  A
N235        C236   1.349       .  A
C236        C237   1.386       .  A
C236        H239   1.082       .  S
C237        C238   1.384       .  A
C237       C1311   1.482       .  S
C238        H240   1.081       .  S
N241        N242   1.324       .  A
N241        C245   1.346       .  A
N241       Cu249   2.081       .  S
N242        C243   1.344       .  A
N242       Cu248   2.075       .  S
C243        C244   1.382       .  A
C243        H246   1.082       .  S
C244        C245   1.382       .  A
C244       C1303   1.473       .  S
C245        H247   1.082       .  S
Cu248       N251   2.074       .  S
Cu249       N259   2.081       .  S
Cu250       N252   2.052       .  S
Cu250       N258   2.051       .  S
N251        N252   1.321       .  A
N251        C255   1.347       .  A
N252        C253   1.341       .  A
C253        C254   1.375       .  A
C253        H256   1.082       .  S
C254        C255   1.381       .  A
C254       C1318   1.432       .  S
C255        H257   1.082       .  S
N258        N259   1.321       .  A
N258        C262   1.341       .  A
N259        C260   1.346       .  A
C260        C261   1.385       .  A
C260        H263   1.082       .  S
C261        C262   1.382       .  A
C261       C1300   1.475       .  S
C262        H264   1.081       .  S
N265        N266   1.320       .  A
N265        C269   1.346       .  A
N265       Cu273   2.078       .  S
N266        C267   1.340       .  A
N266       Cu272   2.047       .  S
C267        C268   1.381       .  A
C267        H270   1.081       .  S
C268        C269   1.385       .  A
C268       C1295   1.472       .  S
C269        H271   1.081       .  S
Cu272       N275   2.048       .  S
Cu273       N283   2.079       .  S
Cu274       N276   2.081       .  S
Cu274       N282   2.082       .  S
N275        N276   1.321       .  A
N275        C279   1.340       .  A
N276        C277   1.348       .  A
C277        C278   1.384       .  A
C277        H280   1.082       .  S
C278        C279   1.374       .  A
C278       C1319   1.434       .  S
C279        H281   1.083       .  S
N282        N283   1.325       .  A
N282        C286   1.345       .  A
N283        C284   1.346       .  A
C284        C285   1.381       .  A
C284        H287   1.082       .  S
C285        C286   1.383       .  A
C285       C1291   1.474       .  S
C286        H288   1.082       .  S
N289        N290   1.322       .  A
N289        C293   1.344       .  A
N289       Cu297   2.064       .  S
N290        C291   1.344       .  A
N290       Cu296   2.066       .  S
C291        C292   1.378       .  A
C291        H294   1.082       .  S
C292        C293   1.378       .  A
C292       C1285   1.432       .  S
C293        H295   1.082       .  S
Cu296       N299   2.066       .  S
Cu297       N307   2.064       .  S
Cu298       N300   2.070       .  S
Cu298       N306   2.070       .  S
N299        N300   1.323       .  A
N299        C303   1.344       .  A
N300        C301   1.345       .  A
C301        C302   1.379       .  A
C301        H304   1.082       .  S
C302        C303   1.377       .  A
C302       C1289   1.433       .  S
C303        H305   1.082       .  S
N306        N307   1.323       .  A
N306        C310   1.345       .  A
N307        C308   1.343       .  A
C308        C309   1.377       .  A
C308        H311   1.082       .  S
C309        C310   1.379       .  A
C309       C1287   1.432       .  S
C310        H312   1.082       .  S
N313        N314   1.325       .  A
N313        C317   1.347       .  A
N313       Cu321   2.088       .  S
N314        C315   1.346       .  A
N314       Cu320   2.080       .  S
C315        C316   1.383       .  A
C315        H318   1.082       .  S
C316        C317   1.383       .  A
C316       C1281   1.477       .  S
C317        H319   1.082       .  S
Cu320       N323   2.079       .  S
Cu321       N331   2.086       .  S
Cu322       N324   2.049       .  S
Cu322       N330   2.048       .  S
N323        N324   1.321       .  A
N323        C327   1.347       .  A
N324        C325   1.341       .  A
C325        C326   1.375       .  A
C325        H328   1.083       .  S
C326        C327   1.382       .  A
C326       C1290   1.433       .  S
C327        H329   1.082       .  S
N330        N331   1.321       .  A
N330        C334   1.340       .  A
N331        C332   1.347       .  A
C332        C333   1.387       .  A
C332        H335   1.082       .  S
C333        C334   1.381       .  A
C333       C1299   1.476       .  S
C334        H336   1.081       .  S
N337        N338   1.322       .  A
N337        C341   1.348       .  A
N337       Cu345   2.094       .  S
N338        C339   1.341       .  A
N338       Cu344   2.052       .  S
C339        C340   1.381       .  A
C339        H342   1.081       .  S
C340        C341   1.387       .  A
C340       C1307   1.478       .  S
C341        H343   1.082       .  S
Cu344       N347   2.052       .  S
Cu345       N355   2.094       .  S
Cu346       N348   2.069       .  S
Cu346       N354   2.071       .  S
N347        N348   1.321       .  A
N347        C351   1.342       .  A
N348        C349   1.346       .  A
C349        C350   1.381       .  A
C349        H352   1.082       .  S
C350        C351   1.376       .  A
C350       C1286   1.431       .  S
C351        H353   1.082       .  S
N354        N355   1.324       .  A
N354        C358   1.342       .  A
N355        C356   1.350       .  A
C356        C357   1.387       .  A
C356        H359   1.082       .  S
C357        C358   1.384       .  A
C357       C1277   1.483       .  S
C358        H360   1.082       .  S
N361        N362   1.321       .  A
N361        C365   1.348       .  A
N361       Cu369   2.085       .  S
N362        C363   1.338       .  A
N362       Cu368   2.048       .  S
C363        C364   1.380       .  A
C363        H366   1.081       .  S
C364        C365   1.387       .  A
C364       C1296   1.475       .  S
C365        H367   1.082       .  S
Cu368       N371   2.048       .  S
Cu369       N379   2.086       .  S
Cu370       N372   2.065       .  S
Cu370       N378   2.066       .  S
N371        N372   1.319       .  A
N371        C375   1.341       .  A
N372        C373   1.346       .  A
C373        C374   1.381       .  A
C373        H376   1.082       .  S
C374        C375   1.376       .  A
C374       C1288   1.431       .  S
C375        H377   1.083       .  S
N378        N379   1.325       .  A
N378        C382   1.341       .  A
N379        C380   1.348       .  A
C380        C381   1.383       .  A
C380        H383   1.082       .  S
C381        C382   1.375       .  A
C381       C1273   1.465       .  S
C382        H384   1.082       .  S
N385        N386   1.323       .  A
N385        C389   1.346       .  A
N385       Cu393   2.074       .  S
N386        C387   1.344       .  A
N386       Cu392   2.068       .  S
C387        C388   1.378       .  A
C387        H390   1.082       .  S
C388        C389   1.380       .  A
C388       C1272   1.435       .  S
C389        H391   1.082       .  S
Cu392       N395   2.067       .  S
Cu393       N403   2.074       .  S
Cu394       N396   2.067       .  S
Cu394       N402   2.067       .  S
N395        N396   1.322       .  A
N395        C399   1.344       .  A
N396        C397   1.345       .  A
C397        C398   1.379       .  A
C397        H400   1.082       .  S
C398        C399   1.378       .  A
C398       C1267   1.433       .  S
C399        H401   1.082       .  S
N402        N403   1.323       .  A
N402        C406   1.344       .  A
N403        C404   1.345       .  A
C404        C405   1.379       .  A
C404        H407   1.082       .  S
C405        C406   1.378       .  A
C405       C1270   1.434       .  S
C406        H408   1.082       .  S
N409        N410   1.322   1_544  A
N409        C413   1.349   1_554  A
N409       Cu417   2.097       .  S
N410        C411   1.340       .  A
N410       Cu416   2.050   1_556  S
C411        C412   1.380   1_565  A
C411        H414   1.081       .  S
C412        C413   1.389       .  A
C412       C1263   1.479       .  S
C413        H415   1.081       .  S
Cu416       N419   2.050       .  S
Cu417       N427   2.097       .  S
Cu418       N420   2.068       .  S
Cu418       N426   2.069       .  S
N419        N420   1.320       .  A
N419        C423   1.342       .  A
N420        C421   1.346       .  A
C421        C422   1.381       .  A
C421        H424   1.082       .  S
C422        C423   1.376       .  A
C422       C1268   1.433       .  S
C423        H425   1.082       .  S
N426        N427   1.325   1_565  A
N426        C430   1.342       .  A
N427        C428   1.351       .  A
C428        C429   1.386       .  A
C428        H431   1.082       .  S
C429        C430   1.376   1_545  A
C429       C1312   1.470       .  S
C430        H432   1.082       .  S
N433        N434   1.321       .  A
N433        C437   1.346   1_554  A
N433       Cu441   2.075       .  S
N434        C435   1.341   1_554  A
N434       Cu440   2.054       .  S
C435        C436   1.382       .  A
C435        H438   1.081       .  S
C436        C437   1.384       .  A
C436       C1259   1.474       .  S
C437        H439   1.081       .  S
Cu440       N443   2.055       .  S
Cu441       N451   2.076       .  S
Cu442       N444   2.079       .  S
Cu442       N450   2.079       .  S
N443        N444   1.322       .  A
N443        C447   1.342       .  A
N444        C445   1.347       .  A
C445        C446   1.382       .  A
C445        H448   1.082       .  S
C446        C447   1.376       .  A
C446       C1271   1.435       .  S
C447        H449   1.083       .  S
N450        N451   1.324       .  A
N450        C454   1.345       .  A
N451        C452   1.345       .  A
C452        C453   1.380       .  A
C452        H455   1.082       .  S
C453        C454   1.383       .  A
C453       C1304   1.472       .  S
C454        H456   1.082       .  S
N457        N458   1.320   1_655  A
N457        C461   1.347   1_554  A
N457       Cu465   2.082       .  S
N458        C459   1.339   1_554  A
N458       Cu464   2.043       .  S
C459        C460   1.381   1_455  A
C459        H462   1.080       .  S
C460        C461   1.387       .  A
C460       C1256   1.475       .  S
C461        H463   1.083       .  S
Cu464       N467   2.044       .  S
Cu465       N475   2.084       .  S
Cu466       N468   2.079       .  S
Cu466       N474   2.081       .  S
N467        N468   1.320       .  A
N467        C471   1.340       .  A
N468        C469   1.348       .  A
C469        C470   1.384       .  A
C469        H472   1.082       .  S
C470        C471   1.374       .  A
C470       C1269   1.433       .  S
C471        H473   1.083       .  S
N474        N475   1.325   1_455  A
N474        C478   1.345   1_455  A
N475        C476   1.346       .  A
C476        C477   1.381       .  A
C476        H479   1.082       .  S
C477        C478   1.383       .  A
C477       C1292   1.474       .  S
C478        H480   1.082   1_655  S
N481        N482   1.323       .  A
N481        C485   1.345       .  A
N481       Cu489   2.072       .  S
N482        C483   1.344       .  A
N482       Cu488   2.067       .  S
C483        C484   1.378       .  A
C483        H486   1.082       .  S
C484        C485   1.380       .  A
C484       C1252   1.435       .  S
C485        H487   1.082       .  S
Cu488       N491   2.067       .  S
Cu489       N499   2.071       .  S
Cu490       N492   2.071       .  S
Cu490       N498   2.072       .  S
N491        N492   1.323       .  A
N491        C495   1.344       .  A
N492        C493   1.345       .  A
C493        C494   1.379       .  A
C493        H496   1.082       .  S
C494        C495   1.378       .  A
C494       C1253   1.434       .  S
C495        H497   1.082       .  S
N498        N499   1.323       .  A
N498        C502   1.345       .  A
N499        C500   1.345       .  A
C500        C501   1.378       .  A
C500        H503   1.082       .  S
C501        C502   1.379       .  A
C501       C1250   1.434       .  S
C502        H504   1.082       .  S
N505        N506   1.321   1_455  A
N505        C509   1.346       .  A
N505       Cu513   2.080       .  S
N506        C507   1.341       .  A
N506       Cu512   2.047       .  S
C507        C508   1.381       .  A
C507        H510   1.081       .  S
C508        C509   1.385   1_655  A
C508       C1255   1.473   1_655  S
C509        H511   1.083       .  S
Cu512       N515   2.048       .  S
Cu513       N523   2.081       .  S
Cu514       N516   2.079       .  S
Cu514       N522   2.080       .  S
N515        N516   1.321       .  A
N515        C519   1.340       .  A
N516        C517   1.348       .  A
C517        C518   1.383       .  A
C517        H520   1.082       .  S
C518        C519   1.374       .  A
C518       C1249   1.434       .  S
C519        H521   1.083       .  S
N522        N523   1.324   1_655  A
N522        C526   1.345   1_655  A
N523        C524   1.346       .  A
C524        C525   1.381       .  A
C524        H527   1.082       .  S
C525        C526   1.383       .  A
C525       C1347   1.474       .  S
C526        H528   1.082   1_455  S
N529        N530   1.321       .  A
N529        C533   1.345       .  A
N529       Cu537   2.074       .  S
N530        C531   1.341       .  A
N530       Cu536   2.056       .  S
C531        C532   1.383       .  A
C531        H534   1.081       .  S
C532        C533   1.383       .  A
C532       C1260   1.473       .  S
C533        H535   1.081       .  S
Cu536       N539   2.057       .  S
Cu537       N547   2.075       .  S
Cu538       N540   2.073       .  S
Cu538       N546   2.073       .  S
N539        N540   1.322       .  A
N539        C543   1.342       .  A
N540        C541   1.346       .  A
C541        C542   1.381       .  A
C541        H544   1.082       .  S
C542        C543   1.376       .  A
C542       C1254   1.434       .  S
C543        H545   1.082       .  S
N546        N547   1.323       .  A
N546        C550   1.344       .  A
N547        C548   1.346       .  A
C548        C549   1.381       .  A
C548        H551   1.082       .  S
C549        C550   1.382       .  A
C549       C1344   1.471       .  S
C550        H552   1.082       .  S
N553        N554   1.321       .  A
N553        C557   1.347   1_545  A
N553       Cu561   2.089       .  S
N554        C555   1.342       .  A
N554       Cu560   2.050       .  S
C555        C556   1.381       .  A
C555        H558   1.081       .  S
C556        C557   1.387   1_545  A
C556       C1264   1.477   1_545  S
C557        H559   1.081       .  S
Cu560       N563   2.051       .  S
Cu561       N571   2.090       .  S
Cu562       N564   2.082       .  S
Cu562       N570   2.083       .  S
N563        N564   1.322       .  A
N563        C567   1.341       .  A
N564        C565   1.348       .  A
C565        C566   1.383       .  A
C565        H568   1.082       .  S
C566        C567   1.375       .  A
C566       C1251   1.434       .  S
C567        H569   1.083       .  S
N570        N571   1.325       .  A
N570        C574   1.347       .  A
N571        C572   1.347   1_545  A
C572        C573   1.383       .  A
C572        H575   1.082       .  S
C573        C574   1.383   1_565  A
C573       C1359   1.476       .  S
C574        H576   1.082       .  S
N577        N578   1.324   1_455  A
N577        C581   1.348       .  A
N577       Cu585   2.086       .  S
N578        C579   1.345       .  A
N578       Cu584   2.073       .  S
C579        C580   1.379       .  A
C579        H582   1.082       .  S
C580        C581   1.382   1_655  A
C580       C1243   1.440       .  S
C581        H583   1.082       .  S
Cu584       N587   2.072   1_545  S
Cu585       N595   2.087       .  S
Cu586       N588   2.077   1_455  S
Cu586       N594   2.077   1_565  S
N587        N588   1.322       .  A
N587        C591   1.346       .  A
N588        C589   1.347       .  A
C589        C590   1.381       .  A
C589        H592   1.082       .  S
C590        C591   1.380       .  A
C590       C1248   1.439       .  S
C591        H593   1.082       .  S
N594        N595   1.324       .  A
N594        C598   1.346       .  A
N595        C596   1.348       .  A
C596        C597   1.383       .  A
C596        H599   1.082       .  S
C597        C598   1.379       .  A
C597       C1245   1.442       .  S
C598        H600   1.082   1_545  S
N601        N602   1.322       .  A
N601        C605   1.347       .  A
N601       Cu609   2.094       .  S
N602        C603   1.344       .  A
N602       Cu608   2.057       .  S
C603        C604   1.382       .  A
C603        H606   1.082       .  S
C604        C605   1.387       .  A
C604       C1235   1.477       .  S
C605        H607   1.081       .  S
Cu608       N611   2.058       .  S
Cu609       N619   2.095       .  S
Cu610       N612   2.087       .  S
Cu610       N618   2.087       .  S
N611        N612   1.322       .  A
N611        C615   1.343       .  A
N612        C613   1.349       .  A
C613        C614   1.384       .  A
C613        H616   1.082       .  S
C614        C615   1.377       .  A
C614       C1244   1.440       .  S
C615        H617   1.083       .  S
N618        N619   1.325       .  A
N618        C622   1.347       .  A
N619        C620   1.349       .  A
C620        C621   1.385       .  A
C620        H623   1.082       .  S
C621        C622   1.384       .  A
C621       C1239   1.482       .  S
C622        H624   1.082       .  S
N625        N626   1.320       .  A
N625        C629   1.349       .  A
N625       Cu633   2.091       .  S
N626        C627   1.339       .  A
N626       Cu632   2.046       .  S
C627        C628   1.381       .  A
C627        H630   1.081       .  S
C628        C629   1.389       .  A
C628       C1231   1.478       .  S
C629        H631   1.083       .  S
Cu632       N635   2.047       .  S
Cu633       N643   2.094       .  S
Cu634       N636   2.099       .  S
Cu634       N642   2.101       .  S
N635        N636   1.321       .  A
N635        C639   1.341       .  A
N636        C637   1.351       .  A
C637        C638   1.388       .  A
C637        H640   1.082       .  S
C638        C639   1.374       .  A
C638       C1246   1.441       .  S
C639        H641   1.083       .  S
N642        N643   1.326       .  A
N642        C646   1.350       .  A
N643        C644   1.347       .  A
C644        C645   1.383       .  A
C644        H647   1.082       .  S
C645        C646   1.387       .  A
C645       C1227   1.483       .  S
C646        H648   1.082       .  S
N649        N650   1.321       .  A
N649        C653   1.347       .  A
N649       Cu657   2.082       .  S
N650        C651   1.342       .  A
N650       Cu656   2.055       .  S
C651        C652   1.383       .  A
C651        H654   1.081       .  S
C652        C653   1.386       .  A
C652       C1219   1.476       .  S
C653        H655   1.081       .  S
Cu656       N659   2.056       .  S
Cu657       N667   2.083       .  S
Cu658       N660   2.092       .  S
Cu658       N666   2.092       .  S
N659        N660   1.322       .  A
N659        C663   1.342       .  A
N660        C661   1.349       .  A
C661        C662   1.385       .  A
C661        H664   1.082       .  S
C662        C663   1.376       .  A
C662       C1247   1.439       .  S
C663        H665   1.083       .  S
N666        N667   1.325       .  A
N666        C670   1.348       .  A
N667        C668   1.346       .  A
C668        C669   1.381       .  A
C668        H671   1.082       .  S
C669        C670   1.385       .  A
C669       C1223   1.478       .  S
C670        H672   1.082       .  S
N673        N674   1.323       .  A
N673        C677   1.346       .  A
N673       Cu681   2.074       .  S
N674        C675   1.343       .  A
N674       Cu680   2.060       .  S
C675        C676   1.376       .  A
C675        H678   1.082       .  S
C676        C677   1.380       .  A
C676       C1214   1.433       .  S
C677        H679   1.082       .  S
Cu680       N683   2.060       .  S
Cu681       N691   2.074       .  S
Cu682       N684   2.066       .  S
Cu682       N690   2.067       .  S
N683        N684   1.322       .  A
N683        C687   1.343       .  A
N684        C685   1.344       .  A
C685        C686   1.378       .  A
C685        H688   1.082       .  S
C686        C687   1.376       .  A
C686       C1215   1.430       .  S
C687        H689   1.082       .  S
N690        N691   1.323       .  A
N690        C694   1.344       .  A
N691        C692   1.345       .  A
C692        C693   1.379       .  A
C692        H695   1.082       .  S
C693        C694   1.377       .  A
C693       C1217   1.433       .  S
C694        H696   1.082       .  S
N697        N698   1.321       .  A
N697        C701   1.346       .  A
N697       Cu705   2.083       .  S
N698        C699   1.342       .  A
N698       Cu704   2.052       .  S
C699        C700   1.382       .  A
C699        H702   1.081       .  S
C700        C701   1.386       .  A
C700       C1232   1.475       .  S
C701        H703   1.083       .  S
Cu704       N707   2.052       .  S
Cu705       N715   2.084       .  S
Cu706       N708   2.075       .  S
Cu706       N714   2.076       .  S
N707        N708   1.321       .  A
N707        C711   1.341       .  A
N708        C709   1.347       .  A
C709        C710   1.382       .  A
C709        H712   1.082       .  S
C710        C711   1.375       .  A
C710       C1218   1.433       .  S
C711        H713   1.082       .  S
N714        N715   1.324       .  A
N714        C718   1.345       .  A
N715        C716   1.346       .  A
C716        C717   1.382       .  A
C716        H719   1.082       .  S
C717        C718   1.383       .  A
C717       C1326   1.475       .  S
C718        H720   1.082       .  S
N721        N722   1.322       .  A
N721        C725   1.351       .  A
N721       Cu729   2.100       .  S
N722        C723   1.339       .  A
N722       Cu728   2.051       .  S
C723        C724   1.380       .  A
C723        H726   1.081       .  S
C724        C725   1.390       .  A
C724       C1236   1.481       .  S
C725        H727   1.082       .  S
Cu728       N731   2.051       .  S
Cu729       N739   2.100       .  S
Cu730       N732   2.057       .  S
Cu730       N738   2.058       .  S
N731        N732   1.319       .  A
N731        C735   1.342       .  A
N732        C733   1.344       .  A
C733        C734   1.379       .  A
C733        H736   1.082       .  S
C734        C735   1.377       .  A
C734       C1216   1.430       .  S
C735        H737   1.082       .  S
N738        N739   1.324       .  A
N738        C742   1.340       .  A
N739        C740   1.351       .  A
C740        C741   1.388       .  A
C740        H743   1.082       .  S
C741        C742   1.374       .  A
C741       C1322   1.470       .  S
C742        H744   1.083       .  S
N745        N746   1.324       .  A
N745        C749   1.346       .  A
N745       Cu753   2.085       .  S
N746        C747   1.346       .  A
N746       Cu752   2.079       .  S
C747        C748   1.383       .  A
C747        H750   1.082       .  S
C748        C749   1.383       .  A
C748       C1329   1.476       .  S
C749        H751   1.082       .  S
Cu752       N755   2.077       .  S
Cu753       N763   2.084       .  S
Cu754       N756   2.053       .  S
Cu754       N762   2.053       .  S
N755        N756   1.322       .  A
N755        C759   1.347       .  A
N756        C757   1.342       .  A
C757        C758   1.375       .  A
C757        H760   1.082       .  S
C758        C759   1.382       .  A
C758       C1213   1.433       .  S
C759        H761   1.082       .  S
N762        N763   1.321       .  A
N762        C766   1.341       .  A
N763        C764   1.347       .  A
C764        C765   1.386       .  A
C764        H767   1.081       .  S
C765        C766   1.382       .  A
C765       C1220   1.476       .  S
C766        H768   1.081       .  S
N769        N770   1.323       .  A
N769        C773   1.347       .  A
N769       Cu777   2.078   1_455  S
N770        C771   1.345       .  A
N770       Cu776   2.071   1_565  S
C771        C772   1.378       .  A
C771        H774   1.082       .  S
C772        C773   1.380       .  A
C772       C1207   1.437       .  S
C773        H775   1.082   1_455  S
Cu776       N779   2.071       .  S
Cu777       N787   2.079       .  S
Cu778       N780   2.071   1_655  S
Cu778       N786   2.071   1_545  S
N779        N780   1.323       .  A
N779        C783   1.345       .  A
N780        C781   1.345       .  A
C781        C782   1.379       .  A
C781        H784   1.082       .  S
C782        C783   1.379       .  A
C782       C1210   1.436       .  S
C783        H785   1.082       .  S
N786        N787   1.324       .  A
N786        C790   1.345       .  A
N787        C788   1.346       .  A
C788        C789   1.381       .  A
C788        H791   1.082       .  S
C789        C790   1.378       .  A
C789       C1211   1.437       .  S
C790        H792   1.082   1_565  S
N793        N794   1.322       .  A
N793        C797   1.349       .  A
N793       Cu801   2.099       .  S
N794        C795   1.342       .  A
N794       Cu800   2.053       .  S
C795        C796   1.381       .  A
C795        H798   1.081       .  S
C796        C797   1.389       .  A
C796       C1199   1.481       .  S
C797        H799   1.082       .  S
Cu800       N803   2.054       .  S
Cu801       N811   2.101       .  S
Cu802       N804   2.081       .  S
Cu802       N810   2.082       .  S
N803        N804   1.321       .  A
N803        C807   1.342       .  A
N804        C805   1.348       .  A
C805        C806   1.383       .  A
C805        H808   1.082       .  S
C806        C807   1.376       .  A
C806       C1208   1.437       .  S
C807        H809   1.083       .  S
N810        N811   1.325       .  A
N810        C814   1.346       .  A
N811        C812   1.349       .  A
C812        C813   1.386       .  A
C812        H815   1.082       .  S
C813        C814   1.383       .  A
C813       C1204   1.481       .  S
C814        H816   1.082       .  S
N817        N818   1.325       .  A
N817        C821   1.349       .  A
N817       Cu825   2.095       .  S
N818        C819   1.346       .  A
N818       Cu824   2.081       .  S
C819        C820   1.383       .  A
C819        H822   1.082       .  S
C820        C821   1.385       .  A
C820       C1196   1.479       .  S
C821        H823   1.082       .  S
Cu824       N827   2.080       .  S
Cu825       N835   2.095       .  S
Cu826       N828   2.055       .  S
Cu826       N834   2.055       .  S
N827        N828   1.322       .  A
N827        C831   1.347       .  A
N828        C829   1.342       .  A
C829        C830   1.376       .  A
C829        H832   1.082       .  S
C830        C831   1.383       .  A
C830       C1209   1.436       .  S
C831        H833   1.082       .  S
N834        N835   1.322       .  A
N834        C838   1.343       .  A
N835        C836   1.348       .  A
C836        C837   1.388       .  A
C836        H839   1.081       .  S
C837        C838   1.381       .  A
C837       C1191   1.479       .  S
C838        H840   1.081       .  S
N841        N842   1.320       .  A
N841        C845   1.346       .  A
N841       Cu849   2.082       .  S
N842        C843   1.340       .  A
N842       Cu848   2.045       .  S
C843        C844   1.381       .  A
C843        H846   1.081       .  S
C844        C845   1.386       .  A
C844       C1183   1.473       .  S
C845        H847   1.083       .  S
Cu848       N851   2.046       .  S
Cu849       N859   2.084       .  S
Cu850       N852   2.090       .  S
Cu850       N858   2.091       .  S
N851        N852   1.322       .  A
N851        C855   1.340       .  A
N852        C853   1.350       .  A
C853        C854   1.385       .  A
C853        H856   1.082       .  S
C854        C855   1.374       .  A
C854       C1212   1.436       .  S
C855        H857   1.083       .  S
N858        N859   1.325       .  A
N858        C862   1.348       .  A
N859        C860   1.346       .  A
C860        C861   1.382       .  A
C860        H863   1.083       .  S
C861        C862   1.385       .  A
C861       C1188   1.478       .  S
C862        H864   1.082       .  S
N865        N866   1.323       .  A
N865        C869   1.345       .  A
N865       Cu873   2.070       .  S
N866        C867   1.344       .  A
N866       Cu872   2.071       .  S
C867        C868   1.379       .  A
C867        H870   1.082       .  S
C868        C869   1.379       .  A
C868       C1177   1.435       .  S
C869        H871   1.082       .  S
Cu872       N875   2.070       .  S
Cu873       N883   2.070       .  S
Cu874       N876   2.064       .  S
Cu874       N882   2.063       .  S
N875        N876   1.323       .  A
N875        C879   1.345       .  A
N876        C877   1.344       .  A
C877        C878   1.378       .  A
C877        H880   1.082       .  S
C878        C879   1.379       .  A
C878       C1181   1.433       .  S
C879        H881   1.082       .  S
N882        N883   1.323       .  A
N882        C886   1.344       .  A
N883        C884   1.344       .  A
C884        C885   1.379       .  A
C884        H887   1.082       .  S
C885        C886   1.377       .  A
C885       C1180   1.432       .  S
C886        H888   1.082       .  S
N889        N890   1.321       .  A
N889        C893   1.349       .  A
N889       Cu897   2.095       .  S
N890        C891   1.342       .  A
N890       Cu896   2.052       .  S
C891        C892   1.382       .  A
C891        H894   1.081       .  S
C892        C893   1.389       .  A
C892       C1200   1.480       .  S
C893        H895   1.082       .  S
Cu896       N899   2.052       .  S
Cu897       N907   2.095       .  S
Cu898       N900   2.078       .  S
Cu898       N906   2.079       .  S
N899        N900   1.321       .  A
N899        C903   1.341       .  A
N900        C901   1.348       .  A
C901        C902   1.383       .  A
C901        H904   1.082       .  S
C902        C903   1.375       .  A
C902       C1178   1.434       .  S
C903        H905   1.082       .  S
N906        N907   1.325       .  A
N906        C910   1.345       .  A
N907        C908   1.348       .  A
C908        C909   1.384       .  A
C908        H911   1.082       .  S
C909        C910   1.382       .  A
C909       C1282   1.477   1_565  S
C910        H912   1.082       .  S
N913        N914   1.320       .  A
N913        C917   1.347       .  A
N913       Cu921   2.080       .  S
N914        C915   1.339       .  A
N914       Cu920   2.044       .  S
C915        C916   1.380       .  A
C915        H918   1.081       .  S
C916        C917   1.386       .  A
C916       C1184   1.474       .  S
C917        H919   1.083       .  S
Cu920       N923   2.045       .  S
Cu921       N931   2.081       .  S
Cu922       N924   2.073       .  S
Cu922       N930   2.074       .  S
N923        N924   1.320       .  A
N923        C927   1.340       .  A
N924        C925   1.347       .  A
C925        C926   1.382       .  A
C925        H928   1.082       .  S
C926        C927   1.374       .  A
C926       C1179   1.431       .  S
C927        H929   1.082       .  S
N930        N931   1.325       .  A
N930        C934   1.343       .  A
N931        C932   1.347       .  A
C932        C933   1.382       .  A
C932        H935   1.082       .  S
C933        C934   1.383       .  A
C933       C1274   1.475       .  S
C934        H936   1.082       .  S
N937        N938   1.325       .  A
N937        C941   1.352       .  A
N937       Cu945   2.102       .  S
N938        C939   1.341       .  A
N938       Cu944   2.065       .  S
C939        C940   1.375       .  A
C939        H942   1.082       .  S
C940        C941   1.388       .  A
C940       C1278   1.471       .  S
C941        H943   1.082       .  S
Cu944       N947   2.064       .  S
Cu945       N955   2.102       .  S
Cu946       N948   2.053       .  S
Cu946       N954   2.053       .  S
N947        N948   1.320       .  A
N947        C951   1.345       .  A
N948        C949   1.342       .  A
C949        C950   1.377       .  A
C949        H952   1.082       .  S
C950        C951   1.380       .  A
C950       C1182   1.432       .  S
C951        H953   1.082       .  S
N954        N955   1.323       .  A
N954        C958   1.340       .  A
N955        C956   1.350       .  A
C956        C957   1.390       .  A
C956        H959   1.081       .  S
C957        C958   1.380       .  A
C957       C1192   1.481       .  S
C958        H960   1.081       .  S
N961        N962   1.323       .  A
N961        C965   1.346       .  A
N961       Cu969   2.075       .  S
N962        C963   1.345       .  A
N962       Cu968   2.072       .  S
C963        C964   1.379       .  A
C963        H966   1.082       .  S
C964        C965   1.380       .  A
C964       C1172   1.437       .  S
C965        H967   1.082       .  S
Cu968       N971   2.072       .  S
Cu969       N979   2.075       .  S
Cu970       N972   2.077       .  S
Cu970       N978   2.077       .  S
N971        N972   1.323       .  A
N971        C975   1.345       .  A
N972        C973   1.346       .  A
C973        C974   1.380       .  A
C973        H976   1.082       .  S
C974        C975   1.379       .  A
C974       C1175   1.438       .  S
C975        H977   1.082       .  S
N978        N979   1.324       .  A
N978        C982   1.345       .  A
N979        C980   1.346       .  A
C980        C981   1.379       .  A
C980        H983   1.082       .  S
C981        C982   1.380       .  A
C981       C1174   1.437       .  S
C982        H984   1.082       .  S
N985        N986   1.321   1_455  A
N985        C989   1.349       .  A
N985       Cu993   2.097       .  S
N986        C987   1.341       .  A
N986       Cu992   2.050       .  S
C987        C988   1.381   1_655  A
C987        H990   1.081       .  S
C988        C989   1.389       .  A
C988       C1167   1.480       .  S
C989        H991   1.082       .  S
Cu992       N995   2.050       .  S
Cu993      N1003   2.098       .  S
Cu994       N996   2.086       .  S
Cu994      N1002   2.087       .  S
N995        N996   1.321       .  A
N995        C999   1.341       .  A
N996        C997   1.349       .  A
C997        C998   1.384       .  A
C997       H1000   1.082       .  S
C998        C999   1.375       .  A
C998       C1171   1.436       .  S
C999       H1001   1.083       .  S
N1002      N1003   1.325   1_655  A
N1002      C1006   1.347   1_655  A
N1003      C1004   1.348       .  A
C1004      C1005   1.385       .  A
C1004      H1007   1.082       .  S
C1005      C1006   1.384       .  A
C1005      C1203   1.481       .  S
C1006      H1008   1.082   1_455  S
N1009      N1010   1.321       .  A
N1009      C1013   1.348       .  A
N1009     Cu1017   2.091       .  S
N1010      C1011   1.343       .  A
N1010     Cu1016   2.062       .  S
C1011      C1012   1.384       .  A
C1011      H1014   1.081       .  S
C1012      C1013   1.387       .  A
C1012      C1164   1.481       .  S
C1013      H1015   1.082       .  S
Cu1016     N1019   2.062       .  S
Cu1017     N1027   2.091       .  S
Cu1018     N1020   2.083       .  S
Cu1018     N1026   2.084       .  S
N1019      N1020   1.322       .  A
N1019      C1023   1.343       .  A
N1020      C1021   1.348       .  A
C1021      C1022   1.383       .  A
C1021      H1024   1.082       .  S
C1022      C1023   1.377       .  A
C1022      C1176   1.438       .  S
C1023      H1025   1.082       .  S
N1026      N1027   1.325       .  A
N1026      C1030   1.347       .  A
N1027      C1028   1.347       .  A
C1028      C1029   1.383       .  A
C1028      H1031   1.082       .  S
C1029      C1030   1.384       .  A
C1029      C1195   1.478       .  S
C1030      H1032   1.082       .  S
N1033      N1034   1.322       .  A
N1033      C1037   1.351   1_545  A
N1033     Cu1041   2.105   1_545  S
N1034      C1035   1.341       .  A
N1034     Cu1040   2.049       .  S
C1035      C1036   1.375       .  A
C1035      H1038   1.081       .  S
C1036      C1037   1.395   1_545  A
C1036      C1159   1.481       .  S
C1037      H1039   1.082       .  S
Cu1040     N1043   2.049       .  S
Cu1041     N1051   2.105       .  S
Cu1042     N1044   2.078       .  S
Cu1042     N1050   2.079       .  S
N1043      N1044   1.320       .  A
N1043      C1047   1.341       .  A
N1044      C1045   1.349       .  A
C1045      C1046   1.385       .  A
C1045      H1048   1.082       .  S
C1046      C1047   1.375       .  A
C1046      C1173   1.437       .  S
C1047      H1049   1.082       .  S
N1050      N1051   1.326   1_545  A
N1050      C1054   1.344   1_545  A
N1051      C1052   1.350       .  A
C1052      C1053   1.387       .  A
C1052      H1055   1.082       .  S
C1053      C1054   1.382       .  A
C1053      C1187   1.481       .  S
C1054      H1056   1.082   1_565  S
N1057      N1058   1.324       .  A
N1057      C1061   1.347       .  A
N1057     Cu1065   2.077       .  S
N1058      C1059   1.347       .  A
N1058     Cu1064   2.083       .  S
C1059      C1060   1.381       .  A
C1059      H1062   1.082       .  S
C1060      C1061   1.380       .  A
C1060      C1153   1.441       .  S
C1061      H1063   1.082       .  S
Cu1064     N1067   2.083       .  S
Cu1065     N1075   2.078       .  S
Cu1066     N1068   2.074       .  S
Cu1066     N1074   2.074       .  S
N1067      N1068   1.323       .  A
N1067      C1071   1.347       .  A
N1068      C1069   1.345       .  A
C1069      C1070   1.379       .  A
C1069      H1072   1.082       .  S
C1070      C1071   1.381       .  A
C1070      C1156   1.440       .  S
C1071      H1073   1.082       .  S
N1074      N1075   1.323       .  A
N1074      C1078   1.346       .  A
N1075      C1076   1.346       .  A
C1076      C1077   1.381       .  A
C1076      H1079   1.082       .  S
C1077      C1078   1.379       .  A
C1077      C1157   1.439       .  S
C1078      H1080   1.082       .  S
N1081      N1082   1.322       .  A
N1081      C1085   1.352   1_565  A
N1081     Cu1089   2.108   1_565  S
N1082      C1083   1.340       .  A
N1082     Cu1088   2.046       .  S
C1083      C1084   1.374       .  A
C1083      H1086   1.081       .  S
C1084      C1085   1.395   1_565  A
C1084      C1160   1.480       .  S
C1085      H1087   1.082       .  S
Cu1088     N1091   2.047       .  S
Cu1089     N1099   2.110       .  S
Cu1090     N1092   2.089       .  S
Cu1090     N1098   2.090       .  S
N1091      N1092   1.320       .  A
N1091      C1095   1.341       .  A
N1092      C1093   1.350       .  A
C1093      C1094   1.387       .  A
C1093      H1096   1.082       .  S
C1094      C1095   1.375       .  A
C1094      C1154   1.440       .  S
C1095      H1097   1.082       .  S
N1098      N1099   1.327   1_565  A
N1098      C1102   1.347   1_565  A
N1099      C1100   1.351       .  A
C1100      C1101   1.387       .  A
C1100      H1103   1.082       .  S
C1101      C1102   1.384       .  A
C1101      C1228   1.485       .  S
C1102      H1104   1.082   1_545  S
N1105      N1106   1.322       .  A
N1105      C1109   1.347       .  A
N1105     Cu1113   2.090       .  S
N1106      C1107   1.344       .  A
N1106     Cu1112   2.065       .  S
C1107      C1108   1.384       .  A
C1107      H1110   1.081       .  S
C1108      C1109   1.386       .  A
C1108      C1163   1.481       .  S
C1109      H1111   1.082       .  S
Cu1112     N1115   2.065       .  S
Cu1113     N1123   2.090       .  S
Cu1114     N1116   2.083       .  S
Cu1114     N1122   2.083       .  S
N1115      N1116   1.322       .  A
N1115      C1119   1.344       .  A
N1116      C1117   1.348       .  A
C1117      C1118   1.383       .  A
C1117      H1120   1.082       .  S
C1118      C1119   1.378       .  A
C1118      C1155   1.439       .  S
C1119      H1121   1.082       .  S
N1122      N1123   1.324       .  A
N1122      C1126   1.346       .  A
N1123      C1124   1.348       .  A
C1124      C1125   1.384       .  A
C1124      H1127   1.082       .  S
C1125      C1126   1.384       .  A
C1125      C1224   1.479       .  S
C1126      H1128   1.082       .  S
N1129      N1130   1.321       .  A
N1129      C1133   1.349   1_455  A
N1129     Cu1137   2.095   1_455  S
N1130      C1131   1.342       .  A
N1130     Cu1136   2.051       .  S
C1131      C1132   1.382       .  A
C1131      H1134   1.081       .  S
C1132      C1133   1.389   1_455  A
C1132      C1168   1.480   1_455  S
C1133      H1135   1.082       .  S
Cu1136     N1139   2.051       .  S
Cu1137     N1147   2.097       .  S
Cu1138     N1140   2.091       .  S
Cu1138     N1146   2.092       .  S
N1139      N1140   1.322       .  A
N1139      C1143   1.342       .  A
N1140      C1141   1.350       .  A
C1141      C1142   1.385       .  A
C1141      H1144   1.082       .  S
C1142      C1143   1.375       .  A
C1142      C1158   1.438       .  S
C1143      H1145   1.083       .  S
N1146      N1147   1.326   1_455  A
N1146      C1150   1.348       .  A
N1147      C1148   1.348       .  A
C1148      C1149   1.384       .  A
C1148      H1151   1.082       .  S
C1149      C1150   1.385   1_655  A
C1149      C1240   1.481       .  S
C1150      H1152   1.082       .  S
C1153      C1154   1.208       .  T
C1155      C1156   1.207       .  T
C1157      C1158   1.207       .  T
C1159      C1160   1.338   1_545  D
C1159      H1161   1.085       .  S
C1160      H1162   1.085       .  S
C1163      C1164   1.348       .  D
C1163      H1165   1.085       .  S
C1164      H1166   1.085       .  S
C1167      C1168   1.350   1_455  D
C1167      H1169   1.085       .  S
C1168      H1170   1.085       .  S
C1171      C1172   1.206       .  T
C1173      C1174   1.206       .  T
C1175      C1176   1.207       .  T
C1177      C1178   1.204       .  T
C1179      C1180   1.203       .  T
C1181      C1182   1.203       .  T
C1183      C1184   1.346       .  D
C1183      H1185   1.085       .  S
C1184      H1186   1.085       .  S
C1187      C1188   1.345       .  D
C1187      H1189   1.086       .  S
C1188      H1190   1.087       .  S
C1191      C1192   1.350       .  D
C1191      H1193   1.083       .  S
C1192      H1194   1.084       .  S
C1195      C1196   1.344       .  D
C1195      H1197   1.086       .  S
C1196      H1198   1.086       .  S
C1199      C1200   1.350       .  D
C1199      H1201   1.084       .  S
C1200      H1202   1.084       .  S
C1203      C1204   1.346       .  D
C1203      H1205   1.086       .  S
C1204      H1206   1.086       .  S
C1207      C1208   1.206       .  T
C1209      C1210   1.205       .  T
C1211      C1212   1.206       .  T
C1213      C1214   1.203       .  T
C1215      C1216   1.202       .  T
C1217      C1218   1.204       .  T
C1219      C1220   1.347       .  D
C1219      H1221   1.084       .  S
C1220      H1222   1.084       .  S
C1223      C1224   1.343       .  D
C1223      H1225   1.086       .  S
C1224      H1226   1.086       .  S
C1227      C1228   1.347       .  D
C1227      H1229   1.086       .  S
C1228      H1230   1.086       .  S
C1231      C1232   1.348       .  D
C1231      H1233   1.086       .  S
C1232      H1234   1.085       .  S
C1235      C1236   1.350       .  D
C1235      H1237   1.083       .  S
C1236      H1238   1.084       .  S
C1239      C1240   1.345       .  D
C1239      H1241   1.086       .  S
C1240      H1242   1.086       .  S
C1243      C1244   1.208       .  T
C1245      C1246   1.208       .  T
C1247      C1248   1.207       .  T
C1249      C1250   1.204       .  T
C1251      C1252   1.204       .  T
C1253      C1254   1.204       .  T
C1255      C1256   1.346   1_455  D
C1255      H1257   1.085       .  S
C1256      H1258   1.086       .  S
C1259      C1260   1.345       .  D
C1259      H1261   1.084       .  S
C1260      H1262   1.084       .  S
C1263      C1264   1.349   1_545  D
C1263      H1265   1.084       .  S
C1264      H1266   1.083       .  S
C1267      C1268   1.203       .  T
C1269      C1270   1.204       .  T
C1271      C1272   1.205       .  T
C1273      C1274   1.340       .  D
C1273      H1275   1.086       .  S
C1274      H1276   1.087       .  S
C1277      C1278   1.343   1_655  D
C1277      H1279   1.086   1_655  S
C1278      H1280   1.085       .  S
C1281      C1282   1.344       .  D
C1281      H1283   1.086   1_545  S
C1282      H1284   1.086       .  S
C1285      C1286   1.203       .  T
C1287      C1288   1.202       .  T
C1289      C1290   1.203       .  T
C1291      C1292   1.342       .  D
C1291      H1293   1.087       .  S
C1292      H1294   1.086       .  S
C1295      C1296   1.347       .  D
C1295      H1297   1.083       .  S
C1296      H1298   1.084       .  S
C1299      C1300   1.347       .  D
C1299      H1301   1.085       .  S
C1300      H1302   1.085       .  S
C1303      C1304   1.341       .  D
C1303      H1305   1.086       .  S
C1304      H1306   1.087       .  S
C1307      C1308   1.348       .  D
C1307      H1309   1.084       .  S
C1308      H1310   1.085       .  S
C1311      C1312   1.343       .  D
C1311      H1313   1.086       .  S
C1312      H1314   1.085       .  S
C1315      C1316   1.204       .  T
C1317      C1318   1.203       .  T
C1319      C1320   1.205       .  T
C1321      C1322   1.338   1_565  D
C1321      H1323   1.086       .  S
C1322      H1324   1.088   1_545  S
C1325      C1326   1.342       .  D
C1325      H1327   1.087       .  S
C1326      H1328   1.087       .  S
C1329      C1330   1.343       .  D
C1329      H1331   1.087   1_655  S
C1330      H1332   1.086       .  S
C1333      C1334   1.202       .  T
C1335      C1336   1.203       .  T
C1337      C1338   1.204       .  T
C1339      C1340   1.345       .  D
C1339      H1341   1.085       .  S
C1340      H1342   1.085       .  S
C1343      C1344   1.340       .  D
C1343      H1345   1.086       .  S
C1344      H1346   1.086       .  S
C1347      C1348   1.342       .  D
C1347      H1349   1.087       .  S
C1348      H1350   1.087       .  S
C1351      C1352   1.346       .  D
C1351      H1353   1.084       .  S
C1352      H1354   1.084       .  S
C1355      C1356   1.336       .  D
C1355      H1357   1.087       .  S
C1356      H1358   1.086       .  S
C1359      C1360   1.345       .  D
C1359      H1361   1.087       .  S
C1360      H1362   1.086       .  S
C1363      C1364   1.203       .  T
C1365      C1366   1.205       .  T
C1367      C1368   1.203       .  T
