geometry optimzed in LAMMPS
_audit_creation_date              2020-12-01 
_audit_creation_method            'lammps2cif' 
_symmetry_space_group_name_H-M    'P1' 
_symmetry_Int_Tables_number       1 
_symmetry_cell_setting            triclinic 
loop_ 
_symmetry_equiv_pos_as_xyz 
  x,y,z 
_cell_length_a                    41.49672872 
_cell_length_b                    41.65364400353454 
_cell_length_c                    37.75433025072297 
_cell_angle_alpha                 89.98228155619094 
_cell_angle_beta                  89.93592512621355 
_cell_angle_gamma                 122.63192415179945 
loop_ 
_atom_site_label 
_atom_site_type_symbol 
_atom_site_fract_x 
_atom_site_fract_y 
_atom_site_fract_z 
_atom_site_charge 
C1          C  0.17777191  0.37110923  0.52356664     0.80600
N2          N  0.19972153  0.40989210  0.52304110    -0.77700
C3          C  0.19012882  0.42990647  0.50219355     0.83100
N4          N  0.15886908  0.41113015  0.48131462    -0.77600
C5          C  0.13742357  0.37248507  0.48038661     0.83200
N6          N  0.14669736  0.35226860  0.50181847    -0.79300
C7          C  0.42993396  0.13660772  0.97603357     0.80600
N8          N  0.46890391  0.15775528  0.97620753    -0.77700
C9          C  0.48853828  0.14746594  0.99686712     0.83100
N10         N  0.46922031  0.11625642  0.01767113    -0.77600
C11         C  0.43042347  0.09557515  0.01881000     0.83200
N12         N  0.41062266  0.10562265  0.99774058    -0.79300
C13         C  0.21773454  0.39346163  0.97928115     0.80600
N14         N  0.18396419  0.37330102  0.99730858    -0.77700
C15         C  0.17089938  0.39209585  0.01591015     0.83100
N16         N  0.19131367  0.43078161  0.01572763    -0.77600
C17         C  0.22508354  0.45085803  0.99831364     0.83200
N18         N  0.23834713  0.43215959  0.98038563    -0.79300
C19         C  0.63431232  0.11335984  0.51352642     0.80600
N20         N  0.61613384  0.13241039  0.51454336    -0.77700
C21         C  0.62900966  0.16437342  0.49491387     0.83100
N22         N  0.65983456  0.17692246  0.47349324    -0.77600
C23         C  0.67752217  0.15739400  0.47131896     0.83200
N24         N  0.66487627  0.12576713  0.49164395    -0.79300
C25         C  0.61174952  0.09923238  0.97380525     0.80600
N26         N  0.59294091  0.11758706  0.97607067    -0.77700
C27         C  0.60740937  0.14976915  0.99555381     0.83100
N28         N  0.64061007  0.16336189  0.01340752    -0.77600
C29         C  0.65907104  0.14459427  0.01244486     0.83200
N30         N  0.64477934  0.11261028  0.99228993    -0.79300
C31         C  0.58756552  0.17005919  0.99687755     0.80600
N32         N  0.54880783  0.15044581  0.99552231    -0.77700
C33         C  0.53039086  0.16924659  0.99665510     0.83100
N34         N  0.55085621  0.20786957  0.99941169    -0.77600
C35         C  0.58969837  0.22758557  0.00083215     0.83200
N36         N  0.60790498  0.20859559  0.99954046    -0.79300
C37         C  0.62155874  0.32600965  0.02728446     0.80600
N38         N  0.59960553  0.28747511  0.02341750    -0.77700
C39         C  0.61227639  0.26920608  0.00377671     0.83100
N40         N  0.64688225  0.28955775  0.98779002    -0.77600
C41         C  0.66852325  0.32810756  0.99033538     0.83200
N42         N  0.65594636  0.34642920  0.01030632    -0.79300
O43         O  0.94664705  0.22385642  0.19683649    -0.74000
O44         O  0.86949499  0.18730879  0.26975311    -0.74100
O45         O  0.86919880  0.18732175  0.19734816    -0.74100
O46         O  0.94669002  0.22352902  0.26935286    -0.74200
O47         O  0.95130157  0.27940586  0.26930704    -0.74100
O48         O  0.87455101  0.24354972  0.19768842    -0.74100
O49         O  0.87469424  0.24346131  0.26925790    -0.74000
O50         O  0.95135280  0.27976737  0.19757239    -0.74100
Ni51       Ni  0.90783933  0.20343205  0.23326456     1.25400
Ni52       Ni  0.91317670  0.26346909  0.23342125     1.25400
C53         C  0.96145465  0.25791592  0.18508230     0.88200
C54         C  0.85987053  0.20979373  0.28178201     0.88100
C55         C  0.85932619  0.20967182  0.18557563     0.88100
C56         C  0.96103818  0.25722269  0.28174951     0.88300
C57         C  0.15117734  0.56166243  0.52228346     0.80600
N58         N  0.16551873  0.59311161  0.50139860    -0.77700
C59         C  0.19576317  0.60342811  0.47968852     0.83100
N60         N  0.21208046  0.58264404  0.47957992    -0.77600
C61         C  0.19760809  0.55099324  0.49993452     0.83200
N62         N  0.16701488  0.54038047  0.52108858    -0.79300
C63         C  0.21635609  0.52971729  0.50028489     0.80600
N64         N  0.19541798  0.49109464  0.50176664    -0.77700
C65         C  0.21315850  0.47160542  0.50190561     0.83100
N66         N  0.25200353  0.49087539  0.50037701    -0.77600
C67         C  0.27296070  0.52959430  0.49890092     0.83200
N68         N  0.25504705  0.54883173  0.49887602    -0.79300
C69         C  0.37207851  0.56203571  0.47309425     0.80600
N70         N  0.39254100  0.59313370  0.49435291    -0.77700
C71         C  0.37402861  0.60330212  0.51706659     0.83100
N72         N  0.33520714  0.58246809  0.51811533    -0.77600
C73         C  0.31477443  0.55104265  0.49772407     0.83200
N74         N  0.33322403  0.54085542  0.47527958    -0.79300
C75         C  0.45210982  0.15033007  0.52716767     0.80600
N76         N  0.49090318  0.17162092  0.52434834    -0.77700
C77         C  0.50925250  0.15954198  0.50406949     0.83100
N78         N  0.48874998  0.12639565  0.48615187    -0.77600
C79         C  0.44996289  0.10537912  0.48771738     0.83200
N80         N  0.43150938  0.11726298  0.50846657    -0.79300
C81         C  0.60876637  0.18435249  0.49616630     0.80600
N82         N  0.57009998  0.16398091  0.49924554    -0.77700
C83         C  0.55095801  0.18198783  0.50116334     0.83100
N84         N  0.57056964  0.22062832  0.49997035    -0.77600
C85         C  0.60926392  0.24121447  0.49675969     0.83200
N86         N  0.62835906  0.22303487  0.49505985    -0.79300
C87         C  0.63847391  0.34158924  0.48268885     0.80600
N88         N  0.66971557  0.36020516  0.50434434    -0.77700
C89         C  0.68128844  0.33996183  0.52276328     0.83100
N90         N  0.66192974  0.30158213  0.51900740    -0.77600
C91         C  0.63061421  0.28289068  0.49826298     0.83200
N92         N  0.61866184  0.30284728  0.48038308    -0.79300
C93         C  0.17583242  0.57422397  0.98124027     0.80600
N94         N  0.19578118  0.55698291  0.97932722    -0.77700
C95         C  0.22651927  0.56858891  0.00058437     0.83100
N96         N  0.23683932  0.59695213  0.02431834    -0.77600
C97         C  0.21629272  0.61347910  0.02716926     0.83200
N98         N  0.18599621  0.60221137  0.00542500    -0.79300
C99         C  0.24735864  0.54937502  0.99912777     0.80600
N100        N  0.22767226  0.51075414  0.99869674    -0.77700
C101        C  0.24662156  0.49251829  0.99836196     0.83100
N102        N  0.28545230  0.51303381  0.99848551    -0.77600
C103        C  0.30532304  0.55172102  0.99892186     0.83200
N104        N  0.28622577  0.56988045  0.99933181    -0.79300
C105        C  0.40479927  0.58119804  0.01890090     0.80600
N106        N  0.42516992  0.61400710  0.99962689    -0.77700
C107        C  0.40627740  0.62653119  0.98024037     0.83100
N108        N  0.36740283  0.60654404  0.98081707    -0.77600
C109        C  0.34720243  0.57367298  0.99933757     0.83200
N110        N  0.36595930  0.56093938  0.01795489    -0.79300
O111        O  0.50616305  0.89894936  0.77499387    -0.74000
O112        O  0.46202962  0.81915777  0.70647145    -0.74100
O113        O  0.46748995  0.82255182  0.77790318    -0.74100
O114        O  0.50091664  0.89598460  0.70362264    -0.74200
O115        O  0.55611983  0.89896516  0.70002813    -0.74100
O116        O  0.52218336  0.82448418  0.77472125    -0.74100
O117        O  0.51689917  0.82151674  0.70252151    -0.74000
O118        O  0.56122232  0.90156429  0.77216513    -0.74100
Ni119      Ni  0.48226561  0.85906295  0.74079420     1.25400
Ni120      Ni  0.54113517  0.86171278  0.73715744     1.25400
C121        C  0.54057002  0.91289702  0.78543743     0.88200
C122        C  0.48203948  0.80720046  0.69310495     0.88100
C123        C  0.48941202  0.81189107  0.78903644     0.88100
C124        C  0.53395494  0.90973068  0.68965122     0.88300
O125        O  0.48644528  0.47023740  0.28662501    -0.74000
O126        O  0.52491321  0.43242789  0.21756774    -0.74100
O127        O  0.51983521  0.42965715  0.28902978    -0.74100
O128        O  0.49183958  0.47299433  0.21529211    -0.74200
O129        O  0.54889465  0.52737380  0.21881480    -0.74100
O130        O  0.57735285  0.48345300  0.29281695    -0.74100
O131        O  0.58238086  0.48640524  0.22043558    -0.74000
O132        O  0.54374852  0.52423477  0.29098136    -0.74100
Ni133      Ni  0.50381397  0.44949572  0.25205404     1.25400
Ni134      Ni  0.56523784  0.50735549  0.25590222     1.25400
C135        C  0.50850478  0.50327004  0.30023059     0.88200
C136        C  0.55970537  0.45317364  0.20721828     0.88100
C137        C  0.55305099  0.44927866  0.30318219     0.88100
C138        C  0.51565060  0.50711941  0.20469873     0.88300
O139        O  0.37254726  0.89953539  0.22036943    -0.74000
O140        O  0.34031401  0.82499244  0.29370347    -0.74100
O141        O  0.33873300  0.82343104  0.22257264    -0.74100
O142        O  0.37470610  0.90132664  0.29179919    -0.74200
O143        O  0.31787026  0.89511996  0.29365271    -0.74100
O144        O  0.28150241  0.81642253  0.22275270    -0.74100
O145        O  0.28326052  0.81837129  0.29479716    -0.74000
O146        O  0.31571718  0.89337247  0.22129790    -0.74100
Ni147      Ni  0.35855872  0.86264060  0.25708289     1.25400
Ni148      Ni  0.29746686  0.85560546  0.25815650     1.25400
C149        C  0.34946492  0.90842599  0.20843670     0.88200
C150        C  0.30638951  0.80929489  0.30621952     0.88100
C151        C  0.30441724  0.80700954  0.21122771     0.88100
C152        C  0.35245554  0.91080637  0.30455492     0.88300
O153        O  0.96219164  0.51068708  0.79833632    -0.74000
O154        O  0.88384611  0.48098634  0.72816135    -0.74100
O155        O  0.88591962  0.48180531  0.80057529    -0.74100
O156        O  0.96004119  0.50975882  0.72617837    -0.74200
O157        O  0.94768075  0.45057545  0.72623122    -0.74100
O158        O  0.87546974  0.42336987  0.80085208    -0.74100
O159        O  0.87222725  0.42210310  0.72891210    -0.74000
O160        O  0.95108212  0.45197837  0.79736645    -0.74100
Ni161      Ni  0.92337982  0.49797595  0.76334015     1.25400
Ni162      Ni  0.91107478  0.43493818  0.76339037     1.25400
C163        C  0.96971533  0.48619181  0.80903095     0.88200
C164        C  0.86579133  0.44672423  0.71640675     0.88100
C165        C  0.86914896  0.44802063  0.81344001     0.90500
C166        C  0.96577288  0.48452192  0.71388315     0.88300
O167        O  0.28864849  0.19863295  0.70884777    -0.74000
O168        O  0.25509203  0.23583950  0.78420135    -0.74100
O169        O  0.25149951  0.23624580  0.71195381    -0.74100
O170        O  0.29240348  0.19886689  0.78098207    -0.74200
O171        O  0.34816711  0.25477714  0.77859752    -0.74100
O172        O  0.30770250  0.29176391  0.71119507    -0.74100
O173        O  0.31124922  0.29142458  0.78262982    -0.74000
O174        O  0.34441059  0.25460993  0.70749408    -0.74100
Ni175      Ni  0.26979176  0.21532474  0.74649297     1.25400
Ni176      Ni  0.32974302  0.27504764  0.74486103     1.25400
C177        C  0.32234974  0.22051074  0.69609447     0.88200
C178        C  0.27797568  0.26955913  0.79617567     0.88100
C179        C  0.27324170  0.27044285  0.70028230     0.88100
C180        C  0.32717729  0.22110889  0.79121608     0.88300
C181        C  0.46437734  0.70517236  0.91120595     0.16300
C182        C  0.48927788  0.72844783  0.88399281    -0.32700
C183        C  0.47772536  0.74826762  0.86273702     0.20700
C184        C  0.44326370  0.74536851  0.86873625     0.02900
C185        C  0.41877672  0.72262176  0.89601528    -0.22400
C186        C  0.42999998  0.70251337  0.91678441     0.12100
S187        S  0.47104293  0.67616600  0.93832458    -0.06100
C188        C  0.42664322  0.65992400  0.95657732    -0.09500
C189        C  0.40853489  0.67699776  0.94275853    -0.26200
S190        S  0.43359815  0.77059027  0.84004300    -0.03300
C191        C  0.47640068  0.78542305  0.81931050    -0.16800
C192        C  0.49705363  0.77143478  0.83426283    -0.14800
H193        H  0.51593538  0.73029714  0.87906907     0.20600
H194        H  0.39163658  0.71997398  0.90033041     0.16600
H195        H  0.38014465  0.66976231  0.95017322     0.19100
H196        H  0.52455796  0.77781213  0.82482793     0.12500
C197        C  0.43492923  0.53210354  0.08435720     0.16300
C198        C  0.43459154  0.50678655  0.10886262    -0.32700
C199        C  0.46595762  0.52072337  0.13155878     0.20700
C200        C  0.49675341  0.55817482  0.12983826     0.02900
C201        C  0.49723892  0.58365605  0.10497035    -0.22400
C202        C  0.46545306  0.56971331  0.08231457     0.12100
S203        S  0.39802918  0.52075154  0.05664975    -0.06100
C204        C  0.42337456  0.56726042  0.04200658    -0.09500
C205        C  0.45914726  0.59012364  0.05759369    -0.26200
S206        S  0.53176188  0.56901758  0.16041375    -0.03300
C207        C  0.50423559  0.52260339  0.17554182    -0.16800
C208        C  0.47001097  0.50035284  0.15758954    -0.14800
H209        H  0.41048488  0.47759184  0.11064579     0.20600
H210        H  0.52094126  0.61307249  0.10374170     0.16600
H211        H  0.47843043  0.62031021  0.05256881     0.19100
H212        H  0.44906656  0.47063189  0.16324143     0.12500
C213        C  0.22871991  0.68645484  0.09667888     0.16300
C214        C  0.22497392  0.71086983  0.11945959    -0.32700
C215        C  0.25524292  0.73338472  0.14284186     0.20700
C216        C  0.28763463  0.73152347  0.14342265     0.02900
C217        C  0.29117425  0.70692163  0.12100595    -0.22400
C218        C  0.26105290  0.68453890  0.09770951     0.12100
S219        S  0.19580023  0.65735486  0.06579137    -0.06100
C220        C  0.22598445  0.64246337  0.05443060    -0.09500
C221        C  0.25956865  0.65924125  0.07372320    -0.26200
S222        S  0.32170535  0.76156618  0.17268493    -0.03300
C223        C  0.29214314  0.77695306  0.18458843    -0.16800
C224        C  0.25755476  0.75942027  0.16669660    -0.14800
H225        H  0.19978728  0.71247145  0.11877978     0.20600
H226        H  0.31649303  0.70552688  0.12149749     0.16600
H227        H  0.28184634  0.65339274  0.07027484     0.19100
H228        H  0.23566682  0.76573350  0.17055750     0.12500
C229        C  0.05007590  0.50249099  0.87105075     0.16300
C230        C  0.07820860  0.50048216  0.88941260    -0.32700
C231        C  0.09995223  0.52891711  0.91442601     0.20700
C232        C  0.09381890  0.55795232  0.92112698     0.02900
C233        C  0.06587889  0.56018664  0.90248247    -0.22400
C234        C  0.04431402  0.53187808  0.87718651     0.12100
S235        S  0.02054594  0.47041734  0.84000790    -0.06100
C236        C  0.00054287  0.49713759  0.83468914    -0.09500
C237        C  0.01601749  0.52913272  0.85611710    -0.26200
S238        S  0.12293052  0.58932221  0.95295005    -0.03300
C239        C  0.14384766  0.56323974  0.95691022    -0.16800
C240        C  0.12874439  0.53190273  0.93471877    -0.14800
H241        H  0.08292914  0.47772526  0.88442715     0.20600
H242        H  0.06118740  0.58296308  0.90744775     0.16600
H243        H  0.00686539  0.54905174  0.85645117     0.19100
H244        H  0.13829247  0.51232068  0.93349405     0.12500
C245        C  0.75795863  0.36787053  0.59330900     0.16300
C246        C  0.78110482  0.36665341  0.61937564    -0.32700
C247        C  0.80026284  0.39770100  0.64232887     0.20700
C248        C  0.79718972  0.42911053  0.63929533     0.02900
C249        C  0.77392606  0.43041280  0.61292127    -0.22400
C250        C  0.75416767  0.39885600  0.59006173     0.12100
S251        S  0.73092273  0.33165052  0.56475641    -0.06100
C252        C  0.71335804  0.35778494  0.54811944    -0.09500
C253        C  0.72859040  0.39334640  0.56377164    -0.26200
S254        S  0.82355682  0.46393629  0.67004174    -0.03300
C255        C  0.83817762  0.43533740  0.68715101    -0.16800
C256        C  0.82341073  0.40099630  0.66963528    -0.14800
H257        H  0.78356308  0.34216611  0.62203822     0.20600
H258        H  0.77098067  0.45461837  0.61063392     0.16600
H259        H  0.72015313  0.41315768  0.55745611     0.19100
H260        H  0.82973138  0.37964062  0.67621250     0.12500
C261        C  0.62208211  0.40676026  0.42283942     0.16300
C262        C  0.62554466  0.43636919  0.40179345    -0.32700
C263        C  0.59669906  0.42691401  0.37665667     0.20700
C264        C  0.56553008  0.38981058  0.37322286     0.02900
C265        C  0.56198447  0.36040483  0.39431068    -0.22400
C266        C  0.59105523  0.36970100  0.41886685     0.12100
S267        S  0.65489095  0.41143898  0.45342289    -0.06100
C268        C  0.62677203  0.36280456  0.46029379    -0.09500
C269        C  0.59351926  0.34452471  0.44022463    -0.26200
S270        S  0.53378936  0.38374017  0.34118132    -0.03300
C271        C  0.56287663  0.43163681  0.33164163    -0.16800
C272        C  0.59539879  0.45114861  0.35270976    -0.14800
H273        H  0.64998749  0.46527426  0.40436734     0.20600
H274        H  0.53795482  0.33134953  0.39120548     0.16600
H275        H  0.57267141  0.31409661  0.44042341     0.19100
H276        H  0.61691114  0.48130417  0.35055176     0.12500
C277        C  0.34936792  0.17238022  0.62547482     0.16300
C278        C  0.35134791  0.14788965  0.60122519    -0.32700
C279        C  0.38677212  0.16107963  0.58469846     0.20700
C280        C  0.41857950  0.19690432  0.59212017     0.02900
C281        C  0.41652428  0.22129277  0.61602584    -0.22400
C282        C  0.38133305  0.20822211  0.63239103     0.12100
S283        S  0.30968531  0.16194960  0.64929223    -0.06100
C284        C  0.33674913  0.20646415  0.66844654    -0.09500
C285        C  0.37426105  0.22785798  0.65675984    -0.26200
S286        S  0.45918359  0.20762017  0.57056290    -0.03300
C287        C  0.43335277  0.16342612  0.55092949    -0.16800
C288        C  0.39505750  0.14164333  0.56077871    -0.14800
H289        H  0.32658840  0.11981465  0.59573563     0.20600
H290        H  0.44141777  0.24918006  0.62186534     0.16600
H291        H  0.39555267  0.25617442  0.66607101     0.19100
H292        H  0.37469164  0.11302855  0.55151429     0.12500
C293        C  0.40692357  0.98622863  0.37555422     0.16300
C294        C  0.43498709  0.01307452  0.39825023    -0.32700
C295        C  0.42409167  0.03051627  0.42278033     0.20700
C296        C  0.38681183  0.02164600  0.42510515     0.02900
C297        C  0.35835830  0.99425991  0.40241730    -0.22400
C298        C  0.36942308  0.97690598  0.37741103     0.12100
S299        S  0.41539429  0.96288436  0.34382181    -0.06100
C300        C  0.36786908  0.93992606  0.33244738    -0.09500
C301        C  0.34662173  0.95010882  0.35245853    -0.26200
S302        S  0.38067568  0.04818119  0.45589103    -0.03300
C303        C  0.42898214  0.07151292  0.46494288    -0.16800
C304        C  0.44812246  0.05861501  0.44557898    -0.14800
H305        H  0.46429825  0.02052133  0.39647957     0.20600
H306        H  0.32920972  0.98731154  0.40376703     0.16600
H307        H  0.31632558  0.93835132  0.34917854     0.19100
H308        H  0.47856390  0.07025119  0.44704948     0.12500
C309        C  0.42214475  0.72747855  0.62634177     0.16300
C310        C  0.39287777  0.69954514  0.60506618    -0.32700
C311        C  0.40201305  0.67928701  0.58203363     0.20700
C312        C  0.43870829  0.68651156  0.57991620     0.02900
C313        C  0.46813036  0.71453438  0.60137711    -0.22400
C314        C  0.45890600  0.73475032  0.62470451     0.12100
S315        S  0.41642870  0.75490925  0.65586448    -0.06100
C316        C  0.46408230  0.77655127  0.66652399    -0.09500
C317        C  0.48321697  0.76295098  0.64790641    -0.26200
S318        S  0.44335024  0.65817316  0.55017265    -0.03300
C319        C  0.39521427  0.63620460  0.54104647    -0.16800
C320        C  0.37707505  0.65059862  0.55993806    -0.14800
H321        H  0.36412660  0.69371666  0.60652142     0.20600
H322        H  0.49681457  0.72019425  0.60007687     0.16600
H323        H  0.51321806  0.77324613  0.65103368     0.19100
H324        H  0.34695419  0.64027401  0.55795517     0.12500
C325        C  0.40661173  0.52392157  0.39976046     0.16300
C326        C  0.40910425  0.50311653  0.37207484    -0.32700
C327        C  0.44556204  0.51508127  0.35930827     0.20700
C328        C  0.47831439  0.54661158  0.37313422     0.02900
C329        C  0.47582115  0.56759133  0.40098382    -0.22400
C330        C  0.43914655  0.55537578  0.41402295     0.12100
S331        S  0.36481335  0.51338833  0.41876912    -0.06100
C332        C  0.39109744  0.55162583  0.44666135    -0.09500
C333        C  0.43040068  0.57152231  0.44109595    -0.26200
S334        S  0.51981823  0.55602211  0.35350120    -0.03300
C335        C  0.49246037  0.51676638  0.32682682    -0.16800
C336        C  0.45346414  0.49790037  0.33293917    -0.14800
H337        H  0.38368862  0.47848724  0.36107358     0.20600
H338        H  0.50123964  0.59213128  0.41206831     0.16600
H339        H  0.45132990  0.59640578  0.45590437     0.19100
H340        H  0.43189760  0.47273642  0.31884367     0.12500
C341        C  0.28376229  0.73090932  0.37341139     0.16300
C342        C  0.28269616  0.70224250  0.39371781    -0.32700
C343        C  0.25133957  0.68106741  0.41638001     0.20700
C344        C  0.22252836  0.68834447  0.41916369     0.02900
C345        C  0.22356765  0.71700578  0.39879445    -0.22400
C346        C  0.25467755  0.73785184  0.37573479     0.12100
S347        S  0.31886262  0.75910160  0.34370967    -0.06100
C348        C  0.29371886  0.77999536  0.33380328    -0.09500
C349        C  0.26019487  0.76597011  0.35295645    -0.26200
S350        S  0.18684729  0.65919443  0.44812029    -0.03300
C351        C  0.21081123  0.63666751  0.45614564    -0.16800
C352        C  0.24471387  0.65139664  0.43742788    -0.14800
H353        H  0.30508906  0.69639062  0.39163796     0.20600
H354        H  0.20090672  0.72250007  0.40051333     0.16600
H355        H  0.24073793  0.77559138  0.35012826     0.19100
H356        H  0.26342014  0.64075320  0.43890910     0.12500
C357        C  0.07965473  0.55226049  0.59245784     0.16300
C358        C  0.05870566  0.55841508  0.61770453    -0.32700
C359        C  0.03522834  0.52840082  0.64100927     0.20700
C360        C  0.03256722  0.49378976  0.63903051     0.02900
C361        C  0.05352999  0.48769813  0.61393122    -0.22400
C362        C  0.07717508  0.51773144  0.59089928     0.12100
S363        S  0.11061986  0.58523756  0.56238925    -0.06100
C364        C  0.12078158  0.55230219  0.54814332    -0.09500
C365        C  0.10068332  0.51758955  0.56559198    -0.26200
S366        S  0.00237420  0.46077959  0.66919402    -0.03300
C367        C  0.99316348  0.49387665  0.68490286    -0.16800
C368        C  0.01270921  0.52869878  0.66749013    -0.14800
H369        H  0.06081670  0.58544461  0.61927311     0.20600
H370        H  0.05170125  0.46078882  0.61258442     0.16600
H371        H  0.10376080  0.49376840  0.56058235     0.19100
H372        H  0.01030310  0.55271818  0.67363469     0.12500
C373        C  0.75764760  0.36506276  0.93321579     0.16300
C374        C  0.78529066  0.36706036  0.91057878    -0.32700
C375        C  0.80468053  0.39864510  0.88815480     0.20700
C376        C  0.79791356  0.42779638  0.88881135     0.02900
C377        C  0.77070809  0.42624838  0.91222003    -0.22400
C378        C  0.75041412  0.39392228  0.93413395     0.12100
S379        S  0.72793796  0.32651286  0.95872195    -0.06100
C380        C  0.70487546  0.34895296  0.97073566    -0.09500
C381        C  0.72028972  0.38502910  0.95622291    -0.26200
S382        S  0.82351045  0.46263824  0.85778850    -0.03300
C383        C  0.84255159  0.43687738  0.84353283    -0.16800
C384        C  0.83016693  0.40372444  0.86245478    -0.14800
H385        H  0.79022895  0.34406765  0.90932847     0.20600
H386        H  0.76455287  0.44841567  0.91232391     0.16600
H387        H  0.70851677  0.40254215  0.95972106     0.19100
H388        H  0.83883764  0.38386485  0.85723689     0.12500
C389        C  0.57659683  0.35915090  0.09499914     0.16300
C390        C  0.55295618  0.36122691  0.12007577    -0.32700
C391        C  0.56823360  0.39503992  0.13945373     0.20700
C392        C  0.60537851  0.42565287  0.13415609     0.02900
C393        C  0.62904791  0.42367708  0.10877852    -0.22400
C394        C  0.61374309  0.38967857  0.08936745     0.12100
S395        S  0.56367277  0.31988201  0.07013058    -0.06100
C396        C  0.60880043  0.34461535  0.05171121    -0.09500
C397        C  0.63236712  0.38158321  0.06427524    -0.26200
S398        S  0.61830785  0.46392335  0.16099527    -0.03300
C399        C  0.57312342  0.43821188  0.17939560    -0.16800
C400        C  0.54966071  0.40206991  0.16521565    -0.14800
H401        H  0.52402252  0.33733304  0.12458803     0.20600
H402        H  0.65814206  0.44738113  0.10459743     0.16600
H403        H  0.66185373  0.40098962  0.05637070     0.19100
H404        H  0.52041024  0.38188372  0.17333425     0.12500
C405        C  0.74424739  0.19165687  0.07595693     0.16300
C406        C  0.77180578  0.21527115  0.10092909    -0.32700
C407        C  0.79092578  0.20091644  0.11883847     0.20700
C408        C  0.78336562  0.16477090  0.11204203     0.02900
C409        C  0.75606303  0.14123825  0.08658847    -0.22400
C410        C  0.73659454  0.15551764  0.06882131     0.12100
S411        S  0.71611661  0.20304159  0.05366244    -0.06100
C412        C  0.69337761  0.15854882  0.03448251    -0.09500
C413        C  0.70758413  0.13643585  0.04460566    -0.26200
S414        S  0.80919555  0.15256475  0.13761377    -0.03300
C415        C  0.83024614  0.19667256  0.15753414    -0.16800
C416        C  0.81775520  0.21931807  0.14475751    -0.14800
H417        H  0.77748239  0.24332471  0.10673976     0.20600
H418        H  0.74973062  0.11283811  0.08139874     0.16600
H419        H  0.69613733  0.10742019  0.03604104     0.19100
H420        H  0.82762183  0.24775643  0.15410750     0.12500
C421        C  0.58931578  0.98482731  0.86151578     0.16300
C422        C  0.61347802  0.00957671  0.88824704    -0.32700
C423        C  0.59955912  0.02720228  0.90957329     0.20700
C424        C  0.56320229  0.02022749  0.90455545     0.02900
C425        C  0.53908012  0.99537115  0.87818389    -0.22400
C426        C  0.55304670  0.97810925  0.85679618     0.12100
S427        S  0.60045719  0.96070092  0.83239673    -0.06100
C428        C  0.55570725  0.94152824  0.81391077    -0.09500
C429        C  0.53377391  0.95350310  0.82960418    -0.26200
S430        S  0.55213807  0.04579393  0.93128856    -0.03300
C431        C  0.59714200  0.06672044  0.94942289    -0.16800
C432        C  0.61914738  0.05369492  0.93572500    -0.14800
H433        H  0.64197038  0.01524612  0.89192286     0.20600
H434        H  0.51082905  0.99021061  0.87409968     0.16600
H435        H  0.50490066  0.94426511  0.82183301     0.19100
H436        H  0.64846282  0.06443723  0.94315538     0.12500
C437        C  0.78939451  0.16894183  0.36023294     0.16300
C438        C  0.76507046  0.14757705  0.38845685    -0.32700
C439        C  0.74735255  0.16319151  0.40718760     0.20700
C440        C  0.75371402  0.19846611  0.39825758     0.02900
C441        C  0.77820792  0.21986834  0.37040488    -0.22400
C442        C  0.79567784  0.20424607  0.35165748     0.12100
S443        S  0.81339903  0.15525261  0.33363319    -0.06100
C444        C  0.83200945  0.19766548  0.31095317    -0.09500
C445        C  0.81998926  0.22077377  0.32356631    -0.26200
S446        S  0.72827944  0.21178722  0.42267609    -0.03300
C447        C  0.70849690  0.16931979  0.44530068    -0.16800
C448        C  0.72159611  0.14640814  0.43450861    -0.14800
H449        H  0.75983500  0.11989107  0.39522910     0.20600
H450        H  0.78302356  0.24732037  0.36330794     0.16600
H451        H  0.82879298  0.24847512  0.31285832     0.19100
H452        H  0.71170858  0.11840170  0.44510770     0.12500
C453        C  0.55254823  0.98466821  0.61978784     0.16300
C454        C  0.55080175  0.01082271  0.59796568    -0.32700
C455        C  0.58222108  0.03394461  0.57600138     0.20700
C456        C  0.61387425  0.03089245  0.57526691     0.02900
C457        C  0.61561669  0.00457907  0.59714590    -0.22400
C458        C  0.58428818  0.98172313  0.61957565     0.12100
S459        S  0.51768096  0.95504275  0.64893958    -0.06100
C460        C  0.54613117  0.93855181  0.66150121    -0.09500
C461        C  0.58078792  0.95520171  0.64358558    -0.26200
S462        S  0.64925215  0.06229222  0.54700928    -0.03300
C463        C  0.62125795  0.08006994  0.53673811    -0.16800
C464        C  0.58629792  0.06204076  0.55406998    -0.14800
H465        H  0.52621755  0.01344583  0.59848307     0.20600
H466        H  0.64047023  0.00240523  0.59706038     0.16600
H467        H  0.60232489  0.94853854  0.64810099     0.19100
H468        H  0.56516029  0.06953080  0.55123472     0.12500
C469        C  0.03656212  0.28593957  0.11141065     0.16300
C470        C  0.06298925  0.28854428  0.08634145    -0.32700
C471        C  0.08721269  0.32403177  0.06979762     0.20700
C472        C  0.08469310  0.35515012  0.07761027     0.02900
C473        C  0.05805787  0.35238943  0.10209429    -0.22400
C474        C  0.03440144  0.31730435  0.11889622     0.12100
S475        S  0.00590486  0.24637715  0.13611009    -0.06100
C476        C  0.99052368  0.27277817  0.15674266    -0.09500
C477        C  0.00809283  0.30992295  0.14460140    -0.26200
S478        S  0.11761699  0.39622246  0.05681850    -0.03300
C479        C  0.13564476  0.37171754  0.03732941    -0.16800
C480        C  0.11638910  0.33332094  0.04629183    -0.14800
H481        H  0.06522544  0.26433643  0.08066553     0.20600
H482        H  0.05654186  0.37689135  0.10849670     0.16600
H483        H  0.00234795  0.33077335  0.15448228     0.19100
H484        H  0.12425274  0.31375949  0.03729345     0.12500
C485        C  0.26413384  0.36030899  0.91362438     0.16300
C486        C  0.28744679  0.35896335  0.88768254    -0.32700
C487        C  0.27224698  0.32532119  0.86810315     0.20700
C488        C  0.23570410  0.29402804  0.87441571     0.02900
C489        C  0.21253378  0.29515098  0.90087199    -0.22400
C490        C  0.22753017  0.32915492  0.92012113     0.12100
S491        S  0.27627390  0.39980849  0.93764998    -0.06100
C492        C  0.23139262  0.37445823  0.95656058    -0.09500
C493        C  0.20863826  0.33698741  0.94512932    -0.26200
S494        S  0.22227601  0.25642239  0.84666560    -0.03300
C495        C  0.26625029  0.28345521  0.82623837    -0.16800
C496        C  0.28992372  0.31940283  0.84063750    -0.14800
H497        H  0.31576815  0.38349811  0.88224110     0.20600
H498        H  0.18376712  0.27103682  0.90553855     0.16600
H499        H  0.17929256  0.31725600  0.95324703     0.19100
H500        H  0.31844983  0.34031664  0.83124834     0.12500
C501        C  0.38499290  0.20562711  0.86023891     0.16300
C502        C  0.41367135  0.20973445  0.88275989    -0.32700
C503        C  0.40373857  0.18069669  0.90732087     0.20700
C504        C  0.36683561  0.14885375  0.90962289     0.02900
C505        C  0.33794809  0.14467579  0.88691505    -0.22400
C506        C  0.34796387  0.17384681  0.86210073     0.12100
S507        S  0.39178286  0.23823073  0.82915603    -0.06100
C508        C  0.34417089  0.20904471  0.81817643    -0.09500
C509        C  0.32424051  0.17554914  0.83775785    -0.26200
S510        S  0.36132854  0.11666501  0.94117067    -0.03300
C511        C  0.40936206  0.14645919  0.95088163    -0.16800
C512        C  0.42809655  0.17952540  0.93080646    -0.14800
H513        H  0.44256819  0.23451827  0.88115101     0.20600
H514        H  0.30909334  0.11983832  0.88844384     0.16600
H515        H  0.29408756  0.15407331  0.83477759     0.19100
H516        H  0.45827103  0.20136125  0.93278107     0.12500
C517        C  0.37357741  0.01729425  0.08862625     0.16300
C518        C  0.34824879  0.99260401  0.11495763    -0.32700
C519        C  0.36052857  0.97350778  0.13640862     0.20700
C520        C  0.39617252  0.97866566  0.13154823     0.02900
C521        C  0.42112032  0.00292612  0.10530653    -0.22400
C522        C  0.40908354  0.02208322  0.08424961     0.12100
S523        S  0.36575649  0.04496244  0.06069632    -0.06100
C524        C  0.41110032  0.06328751  0.04372543    -0.09500
C525        C  0.43044876  0.04806051  0.05865203    -0.26200
S526        S  0.40653004  0.95383086  0.15998004    -0.03300
C527        C  0.36237294  0.93591771  0.17905117    -0.16800
C528        C  0.34078714  0.94874997  0.16383492    -0.14800
H529        H  0.32057935  0.98888303  0.11887660     0.20600
H530        H  0.44906475  0.00715050  0.10178433     0.16600
H531        H  0.45936941  0.05648546  0.05189088     0.19100
H532        H  0.31236160  0.94042918  0.17232028     0.12500
C533        C  0.06420576  0.34245189  0.40606364     0.16300
C534        C  0.04277609  0.34273400  0.37770377    -0.32700
C535        C  0.02436675  0.31053776  0.35598140     0.20700
C536        C  0.02670203  0.27906440  0.36226944     0.02900
C537        C  0.04812101  0.27868040  0.39095098    -0.22400
C538        C  0.06695176  0.31124348  0.41265826     0.12100
S539        S  0.09044686  0.38001532  0.43362053    -0.06100
C540        C  0.10609726  0.35400444  0.45435201    -0.09500
C541        C  0.09082409  0.31757185  0.44077089    -0.26200
S542        S  0.00160494  0.24276501  0.33254528    -0.03300
C543        C  0.98807463  0.27057441  0.31164771    -0.16800
C544        C  0.00251065  0.30593090  0.32706855    -0.14800
H545        H  0.04100842  0.36730626  0.37246114     0.20600
H546        H  0.05037263  0.25435156  0.39585573     0.16600
H547        H  0.09834383  0.29771961  0.44966361     0.19100
H548        H  0.99673589  0.32701512  0.31798437     0.12500
C549        C  0.19173317  0.30897371  0.58986286     0.16300
C550        C  0.18840084  0.28092979  0.61321155    -0.32700
C551        C  0.22039552  0.29039172  0.63424583     0.20700
C552        C  0.25392684  0.32610785  0.63195746     0.02900
C553        C  0.25713561  0.35394630  0.60894779    -0.22400
C554        C  0.22540732  0.34456352  0.58812377     0.12100
S555        S  0.15668407  0.30397002  0.56193144    -0.06100
C556        C  0.18792782  0.35045153  0.54830390    -0.09500
C557        C  0.22338169  0.36830112  0.56458632    -0.26200
S558        S  0.28973459  0.33253056  0.65884979    -0.03300
C559        C  0.25963926  0.28654595  0.67378637    -0.16800
C560        C  0.22345440  0.26737046  0.65846423    -0.14800
H561        H  0.16218302  0.25310319  0.61487700     0.20600
H562        H  0.28333480  0.38181236  0.60733195     0.16600
H563        H  0.24654565  0.39744398  0.55969982     0.19100
H564        H  0.20087930  0.23830377  0.66449744     0.12500
loop_ 
_geom_bond_atom_site_label_1 
_geom_bond_atom_site_label_2 
_geom_bond_distance 
_geom_bond_site_symmetry_2 
_ccdc_geom_bond_type 
C1            N2   1.361       .  A
C1            N6   1.365       .  A
C1          C556   1.477       .  S
N2            C3   1.353       .  A
C3            N4   1.351       .  A
C3           C65   1.463       .  S
N4            C5   1.356       .  A
C5            N6   1.364       .  A
C5          C540   1.474       .  S
C7            N8   1.362       .  A
C7           N12   1.365       .  A
C7          C511   1.476       .  S
N8            C9   1.354       .  A
C9           N10   1.350   1_556  A
C9           C33   1.463       .  S
N10          C11   1.356       .  A
C11          N12   1.362   1_554  A
C11         C524   1.473       .  S
C13          N14   1.364       .  A
C13          N18   1.358       .  A
C13         C492   1.472       .  S
N14          C15   1.363   1_556  A
C15          N16   1.357       .  A
C15         C479   1.474       .  S
N16          C17   1.352   1_554  A
C17          N18   1.353       .  A
C17         C101   1.462       .  S
C19          N20   1.359       .  A
C19          N24   1.360       .  A
C19         C463   1.474       .  S
N20          C21   1.356       .  A
C21          N22   1.356       .  A
C21          C81   1.468       .  S
N22          C23   1.360       .  A
C23          N24   1.361       .  A
C23         C447   1.474       .  S
C25          N26   1.358       .  A
C25          N30   1.362       .  A
C25         C431   1.472       .  S
N26          C27   1.354       .  A
C27          N28   1.354   1_556  A
C27          C31   1.465       .  S
N28          C29   1.358       .  A
C29          N30   1.362   1_554  A
C29         C412   1.472       .  S
C31          N32   1.356       .  A
C31          N36   1.356       .  A
N32          C33   1.358       .  A
C33          N34   1.359       .  A
N34          C35   1.359   1_556  A
C35          N36   1.358   1_554  A
C35          C39   1.464       .  S
C37          N38   1.361       .  A
C37          N42   1.364       .  A
C37         C396   1.474       .  S
N38          C39   1.355       .  A
C39          N40   1.353   1_554  A
N40          C41   1.356       .  A
C41          N42   1.361   1_556  A
C41         C380   1.470       .  S
O43         Ni51   1.930       .  S
O43          C53   1.283       .  A
O44         Ni51   1.929       .  S
O44          C54   1.283       .  A
O45         Ni51   1.925       .  S
O45          C55   1.282       .  A
O46         Ni51   1.925       .  S
O46          C56   1.282       .  A
O47         Ni52   1.911       .  S
O47          C56   1.281       .  A
O48         Ni52   1.910       .  S
O48          C55   1.280       .  A
O49         Ni52   1.906       .  S
O49          C54   1.280       .  A
O50         Ni52   1.907       .  S
O50          C53   1.280       .  A
Ni51        Ni52   2.389       .  S
C53         C476   1.475       .  S
C54         C444   1.474       .  S
C55         C415   1.473       .  S
C56         C543   1.474       .  S
C57          N58   1.360       .  A
C57          N62   1.359       .  A
C57         C364   1.471       .  S
N58          C59   1.359       .  A
C59          N60   1.357       .  A
C59         C351   1.471       .  S
N60          C61   1.354       .  A
C61          N62   1.355       .  A
C61          C63   1.461       .  S
C63          N64   1.356       .  A
C63          N68   1.355       .  A
N64          C65   1.359       .  A
C65          N66   1.360       .  A
N66          C67   1.359       .  A
C67          N68   1.355       .  A
C67          C73   1.462       .  S
C69          N70   1.363       .  A
C69          N74   1.360       .  A
C69         C332   1.475       .  S
N70          C71   1.362       .  A
C71          N72   1.357       .  A
C71         C319   1.474       .  S
N72          C73   1.353       .  A
C73          N74   1.354       .  A
C75          N76   1.360       .  A
C75          N80   1.363       .  A
C75         C287   1.471       .  S
N76          C77   1.353       .  A
C77          N78   1.350       .  A
C77          C83   1.461       .  S
N78          C79   1.357       .  A
C79          N80   1.361       .  A
C79         C303   1.471       .  S
C81          N82   1.356       .  A
C81          N86   1.359       .  A
N82          C83   1.357       .  A
C83          N84   1.357       .  A
N84          C85   1.357       .  A
C85          N86   1.361       .  A
C85          C91   1.464       .  S
C87          N88   1.367       .  A
C87          N92   1.363       .  A
C87         C268   1.482       .  S
N88          C89   1.365       .  A
C89          N90   1.355       .  A
C89         C252   1.475       .  S
N90          C91   1.349       .  A
C91          N92   1.356       .  A
C93          N94   1.359       .  A
C93          N98   1.357   1_556  A
C93         C239   1.471       .  S
N94          C95   1.357   1_556  A
C95          N96   1.356       .  A
C95          C99   1.462   1_554  S
N96          C97   1.358       .  A
C97          N98   1.357       .  A
C97         C220   1.469       .  S
C99         N100   1.356       .  A
C99         N104   1.358       .  A
N100        C101   1.356       .  A
C101        N102   1.357       .  A
N102        C103   1.358       .  A
C103        N104   1.359       .  A
C103        C109   1.464       .  S
C105        N106   1.365   1_554  A
C105        N110   1.358       .  A
C105        C204   1.475       .  S
N106        C107   1.366       .  A
C107        N108   1.359       .  A
C107        C188   1.475       .  S
N108        C109   1.352       .  A
C109        N110   1.352   1_556  A
O111       Ni119   1.907       .  S
O111        C121   1.280       .  A
O112       Ni119   1.909       .  S
O112        C122   1.280       .  A
O113       Ni119   1.909       .  S
O113        C123   1.280       .  A
O114       Ni119   1.910       .  S
O114        C124   1.280       .  A
O115       Ni120   1.928       .  S
O115        C124   1.283       .  A
O116       Ni120   1.928       .  S
O116        C123   1.283       .  A
O117       Ni120   1.927       .  S
O117        C122   1.283       .  A
O118       Ni120   1.926       .  S
O118        C121   1.282       .  A
Ni119      Ni120   2.389       .  S
C121        C428   1.472       .  S
C122        C316   1.473       .  S
C123        C191   1.473       .  S
C124        C460   1.473       .  S
O125       Ni133   1.908       .  S
O125        C135   1.280       .  A
O126       Ni133   1.907       .  S
O126        C136   1.279       .  A
O127       Ni133   1.915       .  S
O127        C137   1.281       .  A
O128       Ni133   1.912       .  S
O128        C138   1.281       .  A
O129       Ni134   1.931       .  S
O129        C138   1.283       .  A
O130       Ni134   1.931       .  S
O130        C137   1.283       .  A
O131       Ni134   1.931       .  S
O131        C136   1.283       .  A
O132       Ni134   1.928       .  S
O132        C135   1.282       .  A
Ni133      Ni134   2.388       .  S
C135        C335   1.473       .  S
C136        C399   1.475       .  S
C137        C271   1.478       .  S
C138        C207   1.477       .  S
O139       Ni147   1.912       .  S
O139        C149   1.281       .  A
O140       Ni147   1.913       .  S
O140        C150   1.280       .  A
O141       Ni147   1.896       .  S
O141        C151   1.277       .  A
O142       Ni147   1.898       .  S
O142        C152   1.278       .  A
O143       Ni148   1.929       .  S
O143        C152   1.283       .  A
O144       Ni148   1.930       .  S
O144        C151   1.284       .  A
O145       Ni148   1.918       .  S
O145        C150   1.281       .  A
O146       Ni148   1.923       .  S
O146        C149   1.281       .  A
Ni147      Ni148   2.390       .  S
C149        C527   1.472       .  S
C150        C348   1.468       .  S
C151        C223   1.467       .  S
C152        C300   1.468       .  S
O153       Ni161   1.925       .  S
O153        C163   1.283       .  A
O154       Ni161   1.926       .  S
O154        C164   1.282       .  A
O155       Ni161   1.927       .  S
O155        C165   1.282       .  A
O156       Ni161   1.927       .  S
O156        C166   1.283       .  A
O157       Ni162   1.905       .  S
O157        C166   1.278       .  A
O158       Ni162   1.909       .  S
O158        C165   1.280       .  A
O159       Ni162   1.912       .  S
O159        C164   1.281       .  A
O160       Ni162   1.908       .  S
O160        C163   1.279       .  A
Ni161      Ni162   2.389       .  S
C163        C236   1.469   1_655  S
C164        C255   1.475       .  S
C165        C383   1.473       .  S
C166        C367   1.470       .  S
O167       Ni175   1.924       .  S
O167        C177   1.281       .  A
O168       Ni175   1.921       .  S
O168        C178   1.281       .  A
O169       Ni175   1.937       .  S
O169        C179   1.284       .  A
O170       Ni175   1.934       .  S
O170        C180   1.284       .  A
O171       Ni176   1.902       .  S
O171        C180   1.278       .  A
O172       Ni176   1.904       .  S
O172        C179   1.279       .  A
O173       Ni176   1.911       .  S
O173        C178   1.280       .  A
O174       Ni176   1.909       .  S
O174        C177   1.280       .  A
Ni175      Ni176   2.389       .  S
C177        C284   1.471       .  S
C178        C495   1.471       .  S
C179        C559   1.476       .  S
C180        C508   1.473       .  S
C181        S187   1.716       .  A
C181        C186   1.386       .  A
C181        C182   1.407       .  A
C182        C183   1.408       .  A
C182        H193   1.082       .  S
C183        C192   1.376       .  A
C183        C184   1.387       .  A
C184        S190   1.701       .  A
C184        C185   1.396       .  A
C185        C186   1.398       .  A
C185        H194   1.083       .  S
C186        C189   1.364       .  A
S187        C188   1.726       .  A
C188        C189   1.386       .  A
C189        H195   1.083       .  S
S190        C191   1.721       .  A
C191        C192   1.390       .  A
C192        H196   1.083       .  S
C197        S203   1.699       .  A
C197        C202   1.387       .  A
C197        C198   1.397       .  A
C198        C199   1.398       .  A
C198        H209   1.083       .  S
C199        C208   1.367       .  A
C199        C200   1.386       .  A
C200        S206   1.716       .  A
C200        C201   1.409       .  A
C201        C202   1.409       .  A
C201        H210   1.082       .  S
C202        C205   1.379       .  A
S203        C204   1.722       .  A
C204        C205   1.391       .  A
C205        H211   1.082       .  S
S206        C207   1.728       .  A
C207        C208   1.385       .  A
C208        H212   1.083       .  S
C213        S219   1.707       .  A
C213        C218   1.387       .  A
C213        C214   1.403       .  A
C214        C215   1.403       .  A
C214        H225   1.083       .  S
C215        C224   1.373       .  A
C215        C216   1.388       .  A
C216        S222   1.698       .  A
C216        C217   1.397       .  A
C217        C218   1.397       .  A
C217        H226   1.083       .  S
C218        C221   1.366       .  A
S219        C220   1.725       .  A
C220        C221   1.383       .  A
C221        H227   1.083       .  S
S222        C223   1.722       .  A
C223        C224   1.386       .  A
C224        H228   1.083       .  S
C229        S235   1.703       .  A
C229        C234   1.387       .  A
C229        C230   1.399       .  A
C230        C231   1.400       .  A
C230        H241   1.083       .  S
C231        C240   1.368       .  A
C231        C232   1.387       .  A
C232        S238   1.706       .  A
C232        C233   1.402       .  A
C233        C234   1.403       .  A
C233        H242   1.083       .  S
C234        C237   1.372       .  A
S235        C236   1.722       .  A
C236        C237   1.386       .  A
C237        H243   1.083       .  S
S238        C239   1.724       .  A
C239        C240   1.385       .  A
C240        H244   1.083       .  S
C245        S251   1.696       .  A
C245        C250   1.387       .  A
C245        C246   1.396       .  A
C246        C247   1.396       .  A
C246        H257   1.083       .  S
C247        C256   1.365       .  A
C247        C248   1.386       .  A
C248        S254   1.715       .  A
C248        C249   1.409       .  A
C249        C250   1.409       .  A
C249        H258   1.083       .  S
C250        C253   1.380       .  A
S251        C252   1.723       .  A
C252        C253   1.391       .  A
C253        H259   1.083       .  S
S254        C255   1.728       .  A
C255        C256   1.384       .  A
C256        H260   1.083       .  S
C261        S267   1.715       .  A
C261        C266   1.386       .  A
C261        C262   1.408       .  A
C262        C263   1.408       .  A
C262        H273   1.082       .  S
C263        C272   1.378       .  A
C263        C264   1.387       .  A
C264        S270   1.705       .  A
C264        C265   1.400       .  A
C265        C266   1.401       .  A
C265        H274   1.082       .  S
C266        C269   1.370       .  A
S267        C268   1.727       .  A
C268        C269   1.388       .  A
C269        H275   1.083       .  S
S270        C271   1.723       .  A
C271        C272   1.391       .  A
C272        H276   1.082       .  S
C277        S283   1.713       .  A
C277        C282   1.386       .  A
C277        C278   1.406       .  A
C278        C279   1.407       .  A
C278        H289   1.082       .  S
C279        C288   1.374       .  A
C279        C280   1.387       .  A
C280        S286   1.699       .  A
C280        C281   1.396       .  A
C281        C282   1.397       .  A
C281        H290   1.082       .  S
C282        C285   1.364       .  A
S283        C284   1.726       .  A
C284        C285   1.383       .  A
C285        H291   1.083       .  S
S286        C287   1.721       .  A
C287        C288   1.389       .  A
C288        H292   1.082       .  S
C293        S299   1.695       .  A
C293        C298   1.388       .  A
C293        C294   1.393   1_565  A
C294        C295   1.394       .  A
C294        H305   1.083       .  S
C295        C304   1.360       .  A
C295        C296   1.386       .  A
C296        S302   1.715       .  A
C296        C297   1.407   1_545  A
C297        C298   1.408       .  A
C297        H306   1.082       .  S
C298        C301   1.376       .  A
S299        C300   1.719       .  A
C300        C301   1.389       .  A
C301        H307   1.083       .  S
S302        C303   1.726       .  A
C303        C304   1.383       .  A
C304        H308   1.083       .  S
C309        S315   1.702       .  A
C309        C314   1.387       .  A
C309        C310   1.397       .  A
C310        C311   1.399       .  A
C310        H321   1.083       .  S
C311        C320   1.365       .  A
C311        C312   1.386       .  A
C312        S318   1.714       .  A
C312        C313   1.406       .  A
C313        C314   1.407       .  A
C313        H322   1.083       .  S
C314        C317   1.375       .  A
S315        C316   1.722       .  A
C316        C317   1.389       .  A
C317        H323   1.083       .  S
S318        C319   1.725       .  A
C319        C320   1.386       .  A
C320        H324   1.083       .  S
C325        S331   1.701       .  A
C325        C330   1.387       .  A
C325        C326   1.397       .  A
C326        C327   1.398       .  A
C326        H337   1.082       .  S
C327        C336   1.365       .  A
C327        C328   1.386       .  A
C328        S334   1.714       .  A
C328        C329   1.406       .  A
C329        C330   1.407       .  A
C329        H338   1.082       .  S
C330        C333   1.375       .  A
S331        C332   1.722       .  A
C332        C333   1.390       .  A
C333        H339   1.082       .  S
S334        C335   1.726       .  A
C335        C336   1.385       .  A
C336        H340   1.083       .  S
C341        S347   1.706       .  A
C341        C346   1.387       .  A
C341        C342   1.399       .  A
C342        C343   1.401       .  A
C342        H353   1.083       .  S
C343        C352   1.366       .  A
C343        C344   1.387       .  A
C344        S350   1.708       .  A
C344        C345   1.401       .  A
C345        C346   1.402       .  A
C345        H354   1.083       .  S
C346        C349   1.369       .  A
S347        C348   1.722       .  A
C348        C349   1.386       .  A
C349        H355   1.083       .  S
S350        C351   1.723       .  A
C351        C352   1.386       .  A
C352        H356   1.083       .  S
C357        S363   1.708       .  A
C357        C362   1.387       .  A
C357        C358   1.403       .  A
C358        C359   1.404       .  A
C358        H369   1.083       .  S
C359        C368   1.372       .  A
C359        C360   1.387       .  A
C360        S366   1.702       .  A
C360        C361   1.398       .  A
C361        C362   1.399       .  A
C361        H370   1.083       .  S
C362        C365   1.367       .  A
S363        C364   1.724       .  A
C364        C365   1.385       .  A
C365        H371   1.083       .  S
S366        C367   1.722   1_455  A
C367        C368   1.387   1_655  A
C368        H372   1.083       .  S
C373        S379   1.699       .  A
C373        C378   1.388       .  A
C373        C374   1.396       .  A
C374        C375   1.397       .  A
C374        H385   1.083       .  S
C375        C384   1.364       .  A
C375        C376   1.386       .  A
C376        S382   1.715       .  A
C376        C377   1.407       .  A
C377        C378   1.408       .  A
C377        H386   1.083       .  S
C378        C381   1.376       .  A
S379        C380   1.720       .  A
C380        C381   1.389       .  A
C381        H387   1.083       .  S
S382        C383   1.726       .  A
C383        C384   1.384       .  A
C384        H388   1.083       .  S
C389        S395   1.703       .  A
C389        C394   1.387       .  A
C389        C390   1.398       .  A
C390        C391   1.400       .  A
C390        H401   1.083       .  S
C391        C400   1.367       .  A
C391        C392   1.386       .  A
C392        S398   1.713       .  A
C392        C393   1.405       .  A
C393        C394   1.406       .  A
C393        H402   1.082       .  S
C394        C397   1.374       .  A
S395        C396   1.723       .  A
C396        C397   1.389       .  A
C397        H403   1.083       .  S
S398        C399   1.725       .  A
C399        C400   1.386       .  A
C400        H404   1.083       .  S
C405        S411   1.701       .  A
C405        C410   1.387       .  A
C405        C406   1.398       .  A
C406        C407   1.399       .  A
C406        H417   1.083       .  S
C407        C416   1.366       .  A
C407        C408   1.386       .  A
C408        S414   1.711       .  A
C408        C409   1.405       .  A
C409        C410   1.406       .  A
C409        H418   1.083       .  S
C410        C413   1.374       .  A
S411        C412   1.722       .  A
C412        C413   1.388       .  A
C413        H419   1.083       .  S
S414        C415   1.725       .  A
C415        C416   1.385       .  A
C416        H420   1.083       .  S
C421        S427   1.713       .  A
C421        C426   1.386       .  A
C421        C422   1.405   1_565  A
C422        C423   1.406       .  A
C422        H433   1.083       .  S
C423        C432   1.374       .  A
C423        C424   1.387       .  A
C424        S430   1.700       .  A
C424        C425   1.397   1_545  A
C425        C426   1.398       .  A
C425        H434   1.083       .  S
C426        C429   1.365       .  A
S427        C428   1.725       .  A
C428        C429   1.384       .  A
C429        H435   1.083       .  S
S430        C431   1.722       .  A
C431        C432   1.389       .  A
C432        H436   1.083       .  S
C437        S443   1.714       .  A
C437        C442   1.386       .  A
C437        C438   1.405       .  A
C438        C439   1.407       .  A
C438        H449   1.083       .  S
C439        C448   1.373       .  A
C439        C440   1.387       .  A
C440        S446   1.703       .  A
C440        C441   1.398       .  A
C441        C442   1.399       .  A
C441        H450   1.083       .  S
C442        C445   1.366       .  A
S443        C444   1.725       .  A
C444        C445   1.385       .  A
C445        H451   1.083       .  S
S446        C447   1.722       .  A
C447        C448   1.390       .  A
C448        H452   1.083       .  S
C453        S459   1.702       .  A
C453        C458   1.387       .  A
C453        C454   1.398   1_565  A
C454        C455   1.399       .  A
C454        H465   1.083       .  S
C455        C464   1.367       .  A
C455        C456   1.386       .  A
C456        S462   1.711       .  A
C456        C457   1.405       .  A
C457        C458   1.406   1_545  A
C457        H466   1.083       .  S
C458        C461   1.374       .  A
S459        C460   1.722       .  A
C460        C461   1.389       .  A
C461        H467   1.083       .  S
S462        C463   1.725       .  A
C463        C464   1.385       .  A
C464        H468   1.083       .  S
C469        S475   1.714       .  A
C469        C474   1.386       .  A
C469        C470   1.407       .  A
C470        C471   1.408       .  A
C470        H481   1.083       .  S
C471        C480   1.377       .  A
C471        C472   1.387       .  A
C472        S478   1.699       .  A
C472        C473   1.396       .  A
C473        C474   1.397       .  A
C473        H482   1.083       .  S
C474        C477   1.365       .  A
S475        C476   1.726   1_455  A
C476        C477   1.385   1_655  A
C477        H483   1.083       .  S
S478        C479   1.722       .  A
C479        C480   1.390       .  A
C480        H484   1.083       .  S
C485        S491   1.700       .  A
C485        C490   1.387       .  A
C485        C486   1.398       .  A
C486        C487   1.399       .  A
C486        H497   1.083       .  S
C487        C496   1.367       .  A
C487        C488   1.387       .  A
C488        S494   1.710       .  A
C488        C489   1.404       .  A
C489        C490   1.404       .  A
C489        H498   1.082       .  S
C490        C493   1.374       .  A
S491        C492   1.723       .  A
C492        C493   1.388       .  A
C493        H499   1.083       .  S
S494        C495   1.724       .  A
C495        C496   1.385       .  A
C496        H500   1.083       .  S
C501        S507   1.699       .  A
C501        C506   1.387       .  A
C501        C502   1.397       .  A
C502        C503   1.398       .  A
C502        H513   1.083       .  S
C503        C512   1.366       .  A
C503        C504   1.386       .  A
C504        S510   1.714       .  A
C504        C505   1.407       .  A
C505        C506   1.407       .  A
C505        H514   1.082       .  S
C506        C509   1.377       .  A
S507        C508   1.722       .  A
C508        C509   1.389       .  A
C509        H515   1.082       .  S
S510        C511   1.727       .  A
C511        C512   1.385       .  A
C512        H516   1.083       .  S
C517        S523   1.717       .  A
C517        C522   1.386       .  A
C517        C518   1.408   1_545  A
C518        C519   1.409       .  A
C518        H529   1.083       .  S
C519        C528   1.376       .  A
C519        C520   1.387       .  A
C520        S526   1.699       .  A
C520        C521   1.394   1_565  A
C521        C522   1.396       .  A
C521        H530   1.083       .  S
C522        C525   1.361       .  A
S523        C524   1.727       .  A
C524        C525   1.384       .  A
C525        H531   1.083       .  S
S526        C527   1.719       .  A
C527        C528   1.391       .  A
C528        H532   1.083       .  S
C533        S539   1.698       .  A
C533        C538   1.387       .  A
C533        C534   1.397       .  A
C534        C535   1.397       .  A
C534        H545   1.083       .  S
C535        C544   1.366       .  A
C535        C536   1.386       .  A
C536        S542   1.713       .  A
C536        C537   1.407       .  A
C537        C538   1.407       .  A
C537        H546   1.083       .  S
C538        C541   1.378       .  A
S539        C540   1.723       .  A
C540        C541   1.390       .  A
C541        H547   1.083       .  S
S542        C543   1.727   1_455  A
C543        C544   1.384   1_655  A
C544        H548   1.083   1_455  S
C549        S555   1.717       .  A
C549        C554   1.386       .  A
C549        C550   1.409       .  A
C550        C551   1.410       .  A
C550        H561   1.082       .  S
C551        C560   1.379       .  A
C551        C552   1.387       .  A
C552        S558   1.699       .  A
C552        C553   1.396       .  A
C553        C554   1.397       .  A
C553        H562   1.083       .  S
C554        C557   1.365       .  A
S555        C556   1.728       .  A
C556        C557   1.385       .  A
C557        H563   1.083       .  S
S558        C559   1.722       .  A
C559        C560   1.391       .  A
C560        H564   1.082       .  S
