geometry optimzed in LAMMPS
_audit_creation_date              2020-12-01 
_audit_creation_method            'lammps2cif' 
_symmetry_space_group_name_H-M    'P1' 
_symmetry_Int_Tables_number       1 
_symmetry_cell_setting            triclinic 
loop_ 
_symmetry_equiv_pos_as_xyz 
  x,y,z 
_cell_length_a                    34.67883771 
_cell_length_b                    28.444840610354447 
_cell_length_c                    32.73882934924804 
_cell_angle_alpha                 90.04552562204154 
_cell_angle_beta                  94.23141453989602 
_cell_angle_gamma                 89.32434634593807 
loop_ 
_atom_site_label 
_atom_site_type_symbol 
_atom_site_fract_x 
_atom_site_fract_y 
_atom_site_fract_z 
_atom_site_charge 
C1          C  0.78286915  0.09359771  0.41814503     0.30700
C2          C  0.81606091  0.02472519  0.37294899     0.30700
C3          C  0.81779501  0.10814925  0.39551346    -0.05500
C4          C  0.79993080  0.05157534  0.44255151    -0.06200
C5          C  0.75563634  0.06970991  0.38528779    -0.06100
C6          C  0.83400178  0.07416715  0.37092511    -0.05500
C7          C  0.81687927  0.01582254  0.41986823    -0.06200
C8          C  0.77292565  0.03429383  0.36251000    -0.06100
C9          C  0.85042193  0.09978047  0.34081515    -0.31500
N10         N  0.84823220  0.14624350  0.34930351     0.15000
C11         C  0.82859038  0.15151604  0.38278694    -0.31500
H12         H  0.81582668  0.18479514  0.39101090     0.16900
C13         C  0.82859422  0.98086392  0.44766053    -0.30500
N14         N  0.81988535  0.99534925  0.48561459     0.13700
C15         C  0.80222813  0.03808287  0.48266278    -0.30500
C16         C  0.76140630  0.50355056  0.34074123    -0.30800
N17         N  0.72580554  0.51382931  0.35161182     0.14200
H18         H  0.76853124  0.47200460  0.32433909     0.16900
C19         C  0.71756894  0.05615163  0.38805369    -0.30800
H20         H  0.69575923  0.07208918  0.40535502     0.16900
H21         H  0.79267370  0.06399844  0.00442730     0.16900
H22         H  0.85590241  0.08738004  0.31061863     0.16900
H23         H  0.85562830  0.45577556  0.44193908     0.16900
O24         O  0.71244831  0.17308252  0.36553063    -0.84600
O25         O  0.64183166  0.13857913  0.34109271    -0.81700
C26         C  0.60697628  0.13463158  0.32904807     0.98900
O27         O  0.58539584  0.17106614  0.32441439    -0.81700
O28         O  0.59083176  0.22704343  0.39718190    -0.84300
C29         C  0.60570024  0.25434942  0.42421849     1.03400
O30         O  0.63396392  0.27986983  0.41678410    -0.77100
O31         O  0.69098921  0.21384341  0.41618356    -0.77300
C32         C  0.71017499  0.17969265  0.40398431     1.03300
O33         O  0.70190358  0.23626669  0.29284784    -0.84600
O34         O  0.63583687  0.19374323  0.26516893    -0.81700
C35         C  0.61170313  0.22604409  0.25337948     0.98900
O36         O  0.59864435  0.25383376  0.27920740    -0.81700
O37         O  0.59960647  0.31188491  0.34713280    -0.84300
C38         C  0.62860143  0.33808861  0.34228884     1.03300
O39         O  0.66255813  0.32172351  0.34672281    -0.77100
O40         O  0.72692385  0.26308942  0.35085786    -0.77300
C41         C  0.72925804  0.25601393  0.31284535     1.03300
Cr42       Cr  0.67158488  0.18838435  0.31808538     1.93700
Cr43       Cr  0.59720808  0.24013755  0.33822191     1.93200
Cr44       Cr  0.67654539  0.26718606  0.38006910     1.39100
O45         O  0.64810382  0.23163113  0.34545655    -1.22400
C46         C  0.66244130  0.34099783  0.10903655     0.30700
C47         C  0.63222374  0.26849478  0.15104467     0.30700
C48         C  0.62370840  0.35186051  0.12791346    -0.05500
C49         C  0.65103177  0.29807730  0.08327265    -0.06200
C50         C  0.68913759  0.31877301  0.14343689    -0.06100
C51         C  0.61004186  0.31617253  0.15229767    -0.05500
C52         C  0.63507246  0.26056084  0.10411543    -0.06200
C53         C  0.67355316  0.28182260  0.16483035    -0.06100
C54         C  0.59277532  0.34040767  0.18302748    -0.31500
N55         N  0.59141707  0.38723502  0.17489211     0.15000
C56         C  0.60651296  0.39343828  0.13865420    -0.31500
H57         H  0.61108269  0.42770318  0.12573949     0.16900
C58         C  0.62085087  0.22958556  0.07399227    -0.30500
N59         N  0.62712382  0.24811576  0.03664204     0.13700
C60         C  0.64547547  0.28973762  0.04227766    -0.30500
C61         C  0.70370149  0.25120523  0.17536891    -0.30800
N62         N  0.73639169  0.26752767  0.16135007     0.14200
H63         H  0.70159043  0.21703271  0.18940953     0.16900
C64         C  0.72830372  0.30864665  0.14216520    -0.30800
H65         H  0.74854070  0.32725650  0.12461236     0.16900
H66         H  0.65297813  0.31311651  0.01808622     0.16900
H67         H  0.58953948  0.32702094  0.21340622     0.16900
H68         H  0.60522963  0.19757444  0.07871561     0.16900
O69         O  0.73320049  0.43607491  0.17138084    -0.84600
O70         O  0.79918145  0.39478197  0.20345295    -0.81700
C71         C  0.83479263  0.38599360  0.20515213     0.98900
O72         O  0.85914406  0.41764237  0.19910692    -0.81700
O73         O  0.85020918  0.97297144  0.12301862    -0.84300
C74         C  0.83527772  0.00135337  0.09659941     1.03400
O75         O  0.80919964  0.03013249  0.10553580    -0.77100
O76         O  0.75046932  0.46189038  0.11187265    -0.77300
C77         C  0.72843470  0.43764907  0.13245331     1.03300
O78         O  0.74556230  0.51264536  0.22882596    -0.84600
O79         O  0.81206866  0.46640706  0.26379183    -0.81700
C80         C  0.84271484  0.49033035  0.26870534     0.98900
O81         O  0.85443447  0.00463783  0.24185424    -0.81700
O82         O  0.85157154  0.05941790  0.17171276    -0.84300
C83         C  0.82561737  0.09038101  0.17754217     1.03300
O84         O  0.79007883  0.07995921  0.17543272    -0.77100
O85         O  0.72189020  0.02679720  0.18044163    -0.77300
C86         C  0.72152579  0.02078511  0.21889378     1.03300
Cr87       Cr  0.77461646  0.45509693  0.21416145     1.93700
Cr88       Cr  0.84988737  0.98851439  0.18242320     1.93200
Cr89       Cr  0.76957922  0.02423057  0.14636445     1.39100
O90         O  0.80028506  0.48574935  0.17802348    -1.22400
O91         O  0.66215387  0.48550345  0.35250508    -0.84600
O92         O  0.58012731  0.05794533  0.33264372    -0.81700
C93         C  0.59623164  0.08865282  0.31166872     0.98900
O94         O  0.60914640  0.07832841  0.27758074    -0.81700
O95         O  0.65233492  0.02692937  0.22306729    -0.84300
C96         C  0.68594827  0.02232578  0.24124680     1.03400
O97         O  0.66843808  0.47150253  0.21546020    -0.77100
O98         O  0.69371256  0.48156090  0.29575136    -0.77300
C99         C  0.69221556  0.49283207  0.33276762     1.03300
O100        O  0.59709884  0.41475809  0.33219614    -0.84600
O101        O  0.54868074  0.49063153  0.31479413    -0.81700
C102        C  0.52971088  0.49661448  0.28057988     0.98900
O103        O  0.54599660  0.50474220  0.24809320    -0.81700
O104        O  0.59761110  0.46525298  0.19926073    -0.84300
C105        C  0.59927189  0.42090590  0.20679622     1.03300
O106        O  0.61491925  0.40567885  0.24029391    -0.77100
O107        O  0.65551912  0.40458834  0.31704316    -0.77300
C108        C  0.62585662  0.38785624  0.33005607     1.03300
Cr109      Cr  0.60532981  0.48558947  0.33052386     1.93700
Cr110      Cr  0.59950521  0.01919846  0.24731936     1.93200
Cr111      Cr  0.65526359  0.44336083  0.26780219     1.39100
O112        O  0.61936504  0.48436970  0.27974502    -1.22400
O113        O  0.80359615  0.26677569  0.16435863    -0.84600
O114        O  0.86587688  0.31088875  0.19832483    -0.81700
C115        C  0.84644358  0.33884978  0.21944651     0.98900
O116        O  0.83367245  0.32563205  0.25263214    -0.81700
O117        O  0.79805161  0.26842375  0.30848299    -0.84300
C118        C  0.76454747  0.26216121  0.29088332     1.03400
O119        O  0.76194864  0.24979633  0.25412440    -0.77100
O120        O  0.77514263  0.20441565  0.18357498    -0.77300
C121        C  0.77303826  0.24468501  0.16787681     1.03300
O122        O  0.84263285  0.17270152  0.17115032    -0.84600
O123        O  0.90452436  0.22092578  0.21238554    -0.81700
C124        C  0.92231109  0.24427901  0.24045421     0.98900
O125        O  0.90434663  0.27130059  0.26377185    -0.81700
O126        O  0.86675768  0.20938242  0.31060764    -0.84300
C127        C  0.84163588  0.17950883  0.31768363     1.03300
O128        O  0.80847235  0.18069472  0.29914545    -0.77100
O129        O  0.82784026  0.14347237  0.22969311    -0.77300
C130        C  0.83553757  0.13727155  0.19350189     1.03300
Cr131      Cr  0.85334366  0.24173614  0.18929010     1.93700
Cr132      Cr  0.84993605  0.26732269  0.28101468     1.93200
Cr133      Cr  0.79522453  0.19683224  0.24129259     1.39100
O134        O  0.83366510  0.23481312  0.23739498    -1.22400
C135        C  0.16581539  0.10164520  0.10310240     0.30700
C136        C  0.12590231  0.03463508  0.14183106     0.30700
C137        C  0.12750976  0.11750694  0.12015806    -0.05500
C138        C  0.15270297  0.05943211  0.07621483    -0.06200
C139        C  0.18842730  0.07748020  0.13927138    -0.06100
C140        C  0.10687206  0.08348644  0.13934775    -0.05500
C141        C  0.13134540  0.02408835  0.09564085    -0.06200
C142        C  0.16757424  0.04342826  0.15807764    -0.06100
C143        C  0.08254842  0.10666117  0.16436117    -0.31500
N144        N  0.09006286  0.15308703  0.16347985     0.15000
C145        C  0.11616513  0.16005825  0.13547562    -0.31500
H146        H  0.13211662  0.19236930  0.13353251     0.16900
C147        C  0.10628687  0.00607980  0.06418785    -0.30500
N148        N  0.11365162  0.02659303  0.02799542     0.13700
C149        C  0.14097381  0.05943941  0.03549297    -0.30500
C150        C  0.19354826  0.51226443  0.17494263    -0.30800
N151        N  0.22920607  0.52493076  0.16729649     0.14200
H152        H  0.18671851  0.47959154  0.18962629     0.16900
C153        C  0.22704122  0.06344129  0.14591010    -0.30800
H154        H  0.25240354  0.07969196  0.13555222     0.16900
H155        H  0.14827677  0.08582564  0.01360396     0.16900
H156        H  0.06628397  0.09055646  0.18747673     0.16900
H157        H  0.08148006  0.48506643  0.06963391     0.16900
O158        O  0.23484541  0.18636782  0.15684313    -0.84600
O159        O  0.30064220  0.14807069  0.19016715    -0.81700
C160        C  0.33620250  0.14164392  0.19743950     0.98900
O161        O  0.35953567  0.17593261  0.19753156    -0.81700
O162        O  0.35561665  0.22722317  0.12298869    -0.84300
C163        C  0.34201167  0.25385948  0.09463410     1.03400
O164        O  0.31726359  0.28477423  0.10194483    -0.77100
O165        O  0.25976527  0.21948216  0.10405941    -0.77300
C166        C  0.23990481  0.18757275  0.11843936     1.03300
O167        O  0.24123845  0.25851130  0.22332599    -0.84600
O168        O  0.30801006  0.21240764  0.25865233    -0.81700
C169        C  0.33710460  0.23864534  0.26740276     0.98900
O170        O  0.35136656  0.26217811  0.23976387    -0.81700
O171        O  0.35019859  0.31679792  0.17051587    -0.84300
C172        C  0.32187915  0.34558920  0.17383916     1.03300
O173        O  0.28726834  0.33220202  0.16756721    -0.77100
O174        O  0.22100326  0.27599404  0.16113519    -0.77300
C175        C  0.21417432  0.27222766  0.19835810     1.03300
Cr176      Cr  0.27286177  0.20456796  0.20540848     1.93700
Cr177      Cr  0.35044019  0.24515062  0.18146924     1.93200
Cr178      Cr  0.27325895  0.27593881  0.13667558     1.39100
O179        O  0.29925895  0.24152673  0.17499422    -1.22400
C180        C  0.28732654  0.34542550  0.40872506     0.30700
C181        C  0.32588718  0.27536989  0.37020762     0.30700
C182        C  0.32501387  0.35948500  0.39002366    -0.05500
C183        C  0.30192487  0.30474151  0.43599082    -0.06200
C184        C  0.26377339  0.31996099  0.37341108    -0.06100
C185        C  0.34439511  0.32448466  0.36906836    -0.05500
C186        C  0.32152650  0.26834353  0.41686984    -0.06200
C187        C  0.28446223  0.28511409  0.35377836    -0.06100
C188        C  0.36373201  0.34854713  0.34003317    -0.31500
N189        N  0.35881581  0.39538601  0.34483800     0.15000
C190        C  0.33604171  0.40224103  0.37583362    -0.31500
H191        H  0.32157876  0.43543959  0.38082162     0.16900
C192        C  0.33286020  0.23635766  0.44759408    -0.30500
N193        N  0.32099245  0.25316692  0.48371355     0.13700
C194        C  0.30187692  0.29447924  0.47671184    -0.30500
C195        C  0.25863555  0.25383285  0.33616660    -0.30800
N196        N  0.22310593  0.26650694  0.34521027     0.14200
H197        H  0.26507920  0.22158655  0.32042291     0.16900
C198        C  0.22525936  0.30593529  0.36816101    -0.30800
H199        H  0.20020238  0.32221904  0.37993611     0.16900
H200        H  0.29287425  0.31668129  0.00264614     0.16900
H201        H  0.37414627  0.33439538  0.31238487     0.16900
H202        H  0.34832565  0.20353823  0.44401120     0.16900
O203        O  0.21760326  0.43556128  0.36058045    -0.84600
O204        O  0.15188146  0.39741961  0.32898287    -0.81700
C205        C  0.11645760  0.39126886  0.32125639     0.98900
O206        O  0.09288094  0.42598226  0.31947658    -0.81700
O207        O  0.09709860  0.97228304  0.39703132    -0.84300
C208        C  0.11029756  0.99733097  0.42642344     1.03400
O209        O  0.13364759  0.02961136  0.41965333    -0.77100
O210        O  0.19234416  0.46601218  0.41458402    -0.77300
C211        C  0.21271537  0.43478004  0.39885652     1.03300
O212        O  0.20842997  0.50864050  0.29597049    -0.84600
O213        O  0.14354246  0.46379905  0.26095106    -0.81700
C214        C  0.11773490  0.49529924  0.25304389     0.98900
O215        O  0.10130026  0.01398716  0.28208435    -0.81700
O216        O  0.10053216  0.06499042  0.35209727    -0.84300
C217        C  0.12824510  0.09344344  0.34731468     1.03300
O218        O  0.16304564  0.08016048  0.35485326    -0.77100
O219        O  0.23036688  0.02347396  0.35939196    -0.77300
C220        C  0.23664924  0.02068409  0.32189116     1.03300
Cr221      Cr  0.17850358  0.45416432  0.31356316     1.93700
Cr222      Cr  0.10144365  0.99368902  0.33928683     1.93200
Cr223      Cr  0.17823676  0.02251466  0.38454637     1.39100
O224        O  0.15166091  0.49052423  0.34464016    -1.22400
O225        O  0.16012879  0.23853055  0.34819097    -0.84600
O226        O  0.10977625  0.31009773  0.33389043    -0.81700
C227        C  0.10528856  0.34347181  0.30858830     0.98900
O228        O  0.09758391  0.33610299  0.27100680    -0.81700
O229        O  0.15250990  0.29633892  0.22407280    -0.84300
C230        C  0.17420669  0.26545571  0.20969002     1.03400
O231        O  0.16298405  0.22413539  0.20987485    -0.77100
O232        O  0.19031482  0.23099934  0.29073557    -0.77300
C233        C  0.18950875  0.24449097  0.32746076     1.03300
O234        O  0.09525797  0.16951203  0.33268118    -0.84600
O235        O  0.04713282  0.24668530  0.31356444    -0.81700
C236        C  0.02781073  0.25480265  0.27991413     0.98900
O237        O  0.04348321  0.26516964  0.24742370    -0.81700
O238        O  0.09226971  0.22581202  0.19550012    -0.84300
C239        C  0.09315933  0.18116080  0.19947141     1.03300
O240        O  0.10676823  0.16203779  0.23255252    -0.77100
O241        O  0.15035778  0.15414449  0.30936027    -0.77300
C242        C  0.12308779  0.14116552  0.32902367     1.03300
Cr243      Cr  0.10373001  0.24064515  0.32804645     1.93700
Cr244      Cr  0.09776189  0.27803556  0.23728060     1.93200
Cr245      Cr  0.14949440  0.19577557  0.26187526     1.39100
O246        O  0.11600234  0.23872376  0.27630882    -1.22400
O247        O  0.29269955  0.49542196  0.16701033    -0.84600
O248        O  0.34655663  0.06113777  0.18449003    -0.81700
C249        C  0.34768700  0.09375460  0.21069592     0.98900
O250        O  0.35124137  0.08534496  0.24873158    -0.81700
O251        O  0.29762910  0.04465967  0.29567628    -0.84300
C252        C  0.27619184  0.01364210  0.30918634     1.03400
O253        O  0.28606216  0.47387572  0.30490684    -0.77100
O254        O  0.26041428  0.49070677  0.22353229    -0.77300
C255        C  0.26255837  0.50324680  0.18668174     1.03300
O256        O  0.35573658  0.42008470  0.18630868    -0.84600
O257        O  0.40512588  0.49234759  0.20622814    -0.81700
C258        C  0.42341253  0.50164400  0.24005850     0.98900
O259        O  0.40668684  0.01294443  0.27103546    -0.81700
O260        O  0.35702643  0.47144556  0.31850922    -0.84300
C261        C  0.35493448  0.42712181  0.31136560     1.03300
O262        O  0.34007895  0.41142591  0.27759931    -0.77100
O263        O  0.29711242  0.41341420  0.20030774    -0.77300
C264        C  0.32620976  0.39499340  0.18711380     1.03300
Cr265      Cr  0.34905224  0.49177743  0.18919956     1.93700
Cr266      Cr  0.35214953  0.02564487  0.28094670     1.93200
Cr267      Cr  0.29881974  0.45001710  0.25079687     1.39100
O268        O  0.33406512  0.49096648  0.23965750    -1.22400
C269        C  0.22970995  0.39566697  0.42441403    -0.15700
C270        C  0.26801264  0.38816827  0.42777047    -0.30900
H271        H  0.21069257  0.36718317  0.43068302     0.13300
H272        H  0.28471597  0.42010454  0.42927839     0.13900
C273        C  0.35696851  0.24315889  0.30958358    -0.15700
C274        C  0.34189956  0.23449863  0.34554432    -0.27700
H275        H  0.38370069  0.26236626  0.31126978     0.13300
H276        H  0.32475077  0.20294263  0.34674445     0.13900
C277        C  0.32980687  0.23152285  0.02368011    -0.15700
C278        C  0.35405164  0.25084704  0.05267384    -0.30900
H279        H  0.30762825  0.20784991  0.03285115     0.13300
H280        H  0.37408873  0.27726721  0.04356595     0.13900
C281        C  0.22387113  0.15031343  0.09052481    -0.15700
C282        C  0.18569797  0.14365436  0.08458130    -0.30900
H283        H  0.24334254  0.12214771  0.08307185     0.13300
H284        H  0.16886151  0.17601144  0.08304924     0.13900
C285        C  0.11259225  0.01828708  0.21331298    -0.15700
C286        C  0.11030234  0.00148050  0.17398369    -0.30900
H287        H  0.11920257  0.55587798  0.21785770     0.13300
H288        H  0.10586313  0.96446470  0.16742351     0.13900
C289        C  0.09682690  0.02555086  0.49404545    -0.15700
C290        C  0.10096259  0.98861519  0.46917228    -0.30900
H291        H  0.08474498  0.05864492  0.97470422     0.13300
H292        H  0.10853478  0.45475298  0.48031265     0.13900
C293        C  0.96465203  0.24249323  0.24376901    -0.15700
C294        C  0.98547758  0.25287835  0.27863858    -0.30900
H295        H  0.97913031  0.23221841  0.21674002     0.13300
H296        H  0.97125927  0.25968712  0.30657521     0.13900
C297        C  0.48715374  0.49575992  0.27875063    -0.15700
C298        C  0.46579851  0.49721975  0.24275449    -0.30900
H299        H  0.46963885  0.97695030  0.30527861     0.13300
H300        H  0.47981528  0.49548007  0.21416755     0.13900
C301        C  0.69091383  0.42022591  0.11483734    -0.15700
C302        C  0.68483873  0.38153511  0.09126474    -0.30900
H303        H  0.67056721  0.42834837  0.13687927     0.13300
H304        H  0.70758609  0.37134774  0.07182793     0.13900
C305        C  0.59782833  0.23352099  0.20935293    -0.15700
C306        C  0.62034264  0.22722201  0.17793110    -0.30900
H307        H  0.57270052  0.25614761  0.20430424     0.13300
H308        H  0.64024601  0.19752134  0.18023521     0.13900
C309        C  0.58875405  0.26127675  0.46361962    -0.15700
C310        C  0.60294116  0.23847421  0.49749485    -0.30900
H311        H  0.57470911  0.29516070  0.46754246     0.13300
H312        H  0.62827928  0.19405917  0.98944745     0.13900
C313        C  0.72733353  0.14594959  0.43522681    -0.15700
C314        C  0.76523693  0.13536578  0.44034443    -0.30900
H315        H  0.70745096  0.12428093  0.45067541     0.13300
H316        H  0.78307093  0.16631502  0.44183402     0.13900
C317        C  0.82994451  0.98547630  0.34468487    -0.15700
C318        C  0.85265000  0.99331598  0.31363762    -0.30900
H319        H  0.83098642  0.45785761  0.34693118     0.13300
H320        H  0.87621113  0.01764598  0.31830973     0.13900
C321        C  0.84952354  0.00526672  0.05572525    -0.15700
C322        C  0.83320208  0.98087126  0.02407701    -0.30900
H323        H  0.86286835  0.03850620  0.04908601     0.13300
H324        H  0.79901332  0.45146624  0.03011695     0.13900
C325        C  0.78734038  0.09775724  0.91378027     0.30700
C326        C  0.82820068  0.03199401  0.87301712     0.30700
C327        C  0.82364522  0.11523862  0.89466528    -0.05500
C328        C  0.80425588  0.05704987  0.93986381    -0.06200
C329        C  0.76424130  0.07177768  0.87855383    -0.06100
C330        C  0.84437944  0.08237677  0.87279032    -0.05500
C331        C  0.82490818  0.02280719  0.91930649    -0.06200
C332        C  0.78592853  0.03884912  0.85771148    -0.06100
C333        C  0.86116697  0.10866184  0.84331748    -0.31500
N334        N  0.85344887  0.15480383  0.84851543     0.15000
C335        C  0.83093703  0.15906633  0.87992602    -0.31500
H336        H  0.81386267  0.19043360  0.88480478     0.16900
C337        C  0.83776556  0.98977626  0.94836261    -0.30500
N338        N  0.82614048  0.00401942  0.98525688     0.13700
C339        C  0.80559513  0.04477392  0.98025231    -0.30500
C340        C  0.74600225  0.50106838  0.85176628    -0.30800
N341        N  0.71265484  0.51551089  0.86645929     0.14200
H342        H  0.74969875  0.46752922  0.83688066     0.16900
C343        C  0.72647413  0.05492002  0.87522482    -0.30800
H344        H  0.70115539  0.06915399  0.88797837     0.16900
H345        H  0.79098814  0.05724942  0.50787554     0.16900
H346        H  0.87080530  0.09591196  0.81484702     0.16900
H347        H  0.84357294  0.44696984  0.93980618     0.16900
O348        O  0.71636472  0.18030696  0.85710062    -0.84600
O349        O  0.64831989  0.14207459  0.83484956    -0.81700
C350        C  0.61320044  0.13590127  0.82588667     0.98900
O351        O  0.58991336  0.17091184  0.82365135    -0.81700
O352        O  0.59923173  0.22449050  0.89879949    -0.84300
C353        C  0.61410684  0.25328061  0.92476633     1.03400
O354        O  0.63881232  0.28257913  0.91451726    -0.77100
O355        O  0.69758134  0.21995885  0.90986304    -0.77300
C356        C  0.71456313  0.18500945  0.89581628     1.03300
O357        O  0.70021172  0.24629793  0.78607131    -0.84600
O358        O  0.63537512  0.20143511  0.76136721    -0.81700
C359        C  0.60995379  0.23327610  0.75235541     0.98900
O360        O  0.59594452  0.25707732  0.78035749    -0.81700
O361        O  0.59917237  0.31111299  0.84993942    -0.84300
C362        C  0.62541503  0.33983313  0.84146286     1.03300
O363        O  0.66057070  0.32722108  0.84262600    -0.77100
O364        O  0.72852004  0.27066448  0.84295978    -0.77300
C365        C  0.72953807  0.26266255  0.80491856     1.03300
Cr366      Cr  0.67378026  0.19529587  0.81180207     1.93700
Cr367      Cr  0.59950584  0.24018466  0.83915011     1.93200
Cr368      Cr  0.67949131  0.27300712  0.87496059     1.39100
O369        O  0.65061007  0.23578394  0.84201251    -1.22400
C370        C  0.66832796  0.33868906  0.60281560     0.30700
C371        C  0.63214064  0.27358189  0.64814771     0.30700
C372        C  0.65012053  0.35676908  0.64026571    -0.05500
C373        C  0.63297024  0.31560839  0.58011510    -0.06200
C374        C  0.69249929  0.29576403  0.61706605    -0.06100
C375        C  0.63234921  0.32491008  0.66448860    -0.05500
C376        C  0.61483874  0.27997369  0.60283654    -0.06200
C377        C  0.67478647  0.26403196  0.64113310    -0.06100
C378        C  0.60837603  0.35257410  0.68739634    -0.31500
N379        N  0.61098308  0.39855572  0.67688301     0.15000
C380        C  0.63486765  0.40050473  0.64661117    -0.31500
H381        H  0.64342152  0.43282847  0.63250673     0.16900
C382        C  0.60122609  0.24747581  0.57360729    -0.30500
N383        N  0.60725004  0.26377917  0.53558396     0.13700
C384        C  0.62743106  0.30411654  0.53956452    -0.30500
C385        C  0.70268065  0.23161136  0.65446768    -0.30800
N386        N  0.73635902  0.24290136  0.63859040     0.14200
H387        H  0.69997010  0.20463528  0.67732787     0.16900
C388        C  0.73004542  0.28067544  0.61409900    -0.30800
H389        H  0.75224896  0.29814169  0.59839242     0.16900
H390        H  0.64189873  0.32034245  0.51507056     0.16900
H391        H  0.59317427  0.34146349  0.71320161     0.16900
H392        H  0.59123326  0.21249263  0.57986057     0.16900
O393        O  0.73018823  0.43868542  0.66901349    -0.84600
O394        O  0.79779390  0.39349385  0.68964284    -0.81700
C395        C  0.83344728  0.38534978  0.69420431     0.98900
O396        O  0.85749848  0.41883646  0.69464339    -0.81700
O397        O  0.85140393  0.96292129  0.62393843    -0.84300
C398        C  0.83735296  0.98795137  0.59484357     1.03400
O399        O  0.81344108  0.02010103  0.60139258    -0.77100
O400        O  0.74945486  0.46844448  0.61261932    -0.77300
C401        C  0.73284673  0.43623852  0.63055318     1.03300
O402        O  0.75012927  0.50504374  0.73569590    -0.84600
O403        O  0.81367749  0.45278144  0.76027651    -0.81700
C404        C  0.84020597  0.48221642  0.76878362     0.98900
O405        O  0.85965980  0.00501425  0.73985494    -0.81700
O406        O  0.85501110  0.05454297  0.66775611    -0.84300
C407        C  0.82954171  0.08651287  0.67218102     1.03300
O408        O  0.79376655  0.07786810  0.66676208    -0.77100
O409        O  0.72306602  0.02899890  0.66864860    -0.77300
C410        C  0.71703090  0.02615820  0.70590993     1.03300
Cr411      Cr  0.77448122  0.45018358  0.71139517     1.93700
Cr412      Cr  0.85162510  0.98484034  0.68182436     1.93200
Cr413      Cr  0.77295043  0.01997096  0.64123869     1.39100
O414        O  0.79818222  0.48737266  0.67890342    -1.22400
O415        O  0.64513018  0.51466586  0.86269565    -0.84600
O416        O  0.60860743  0.05497892  0.83769191    -0.81700
C417        C  0.60284219  0.08810028  0.81240019     0.98900
O418        O  0.59576351  0.08042801  0.77451029    -0.81700
O419        O  0.65340978  0.04473615  0.72915294    -0.84300
C420        C  0.67739208  0.01550529  0.71661503     1.03400
O421        O  0.68800818  0.50725179  0.77427285    -0.77100
O422        O  0.67521270  0.45379597  0.84168910    -0.77300
C423        C  0.67638346  0.49287429  0.85902201     1.03300
O424        O  0.60767891  0.42106404  0.85036144    -0.84600
O425        O  0.54474829  0.47012750  0.81218982    -0.81700
C426        C  0.52651797  0.49263654  0.78353383     0.98900
O427        O  0.54369596  0.52022202  0.76061578    -0.81700
O428        O  0.58664439  0.46221415  0.71332853    -0.84300
C429        C  0.61419490  0.43453476  0.70669408     1.03300
O430        O  0.64695217  0.43999310  0.72485315    -0.77100
O431        O  0.62678996  0.39573821  0.79163352    -0.77300
C432        C  0.61659370  0.38740803  0.82674378     1.03300
Cr433      Cr  0.59562706  0.49052958  0.83624195     1.93700
Cr434      Cr  0.59961699  0.02191474  0.74053105     1.93200
Cr435      Cr  0.65698788  0.45152412  0.78350073     1.39100
O436        O  0.61619557  0.48731480  0.78821891    -1.22400
O437        O  0.80193171  0.25555335  0.65539777    -0.84600
O438        O  0.86274057  0.30883707  0.68633720    -0.81700
C439        C  0.84444873  0.33760617  0.70788400     0.98900
O440        O  0.83207616  0.32501823  0.74135152    -0.81700
O441        O  0.79852149  0.27014758  0.79924894    -0.84300
C442        C  0.76506149  0.26151215  0.78265162     1.03400
O443        O  0.76201929  0.24286037  0.74776339    -0.77100
O444        O  0.77563450  0.19296659  0.67905268    -0.77300
C445        C  0.77315976  0.22916253  0.65707120     1.03300
O446        O  0.84590185  0.16822320  0.66606038    -0.84600
O447        O  0.90593794  0.22213853  0.70492019    -0.81700
C448        C  0.92278310  0.24607736  0.73325810     0.98900
O449        O  0.90405426  0.27426259  0.75465182    -0.81700
O450        O  0.86928825  0.21442154  0.80462357    -0.84300
C451        C  0.84552123  0.18418135  0.81419967     1.03300
O452        O  0.81277028  0.18092734  0.79511456    -0.77100
O453        O  0.83312360  0.13965176  0.72553765    -0.77300
C454        C  0.83994304  0.13305552  0.68891032     1.03300
Cr455      Cr  0.85340913  0.23809047  0.68137579     1.93700
Cr456      Cr  0.85002123  0.26893498  0.77184561     1.93200
Cr457      Cr  0.79824698  0.19187154  0.73649293     1.39100
O458        O  0.83443314  0.23278629  0.72993295    -1.22400
C459        C  0.16134767  0.09645479  0.61629245     0.30700
C460        C  0.12278280  0.02499842  0.64943588     0.30700
C461        C  0.12142763  0.10884268  0.63120537    -0.05500
C462        C  0.15128494  0.05658007  0.58672415    -0.06200
C463        C  0.18315067  0.07079778  0.65281772    -0.06100
C464        C  0.10284248  0.07303440  0.65076088    -0.05500
C465        C  0.12994334  0.01954165  0.60272641    -0.06200
C466        C  0.16303695  0.03337296  0.66903951    -0.06100
C467        C  0.08360405  0.09499696  0.68119001    -0.31500
N468        N  0.08681112  0.14226318  0.67734134     0.15000
C469        C  0.10799497  0.15057853  0.64543191    -0.31500
H470        H  0.12035199  0.18454964  0.64018254     0.16900
C471        C  0.10703065  0.00260556  0.56898611    -0.30500
N472        N  0.11550801  0.02639451  0.53470755     0.13700
C473        C  0.14144186  0.05972714  0.54570163    -0.30500
C474        C  0.19273199  0.51233369  0.67637879    -0.30800
N475        N  0.22853547  0.52414167  0.66865544     0.14200
H476        H  0.18545757  0.47970987  0.69087579     0.16900
C477        C  0.22201272  0.05848927  0.65884246    -0.30800
H478        H  0.24665012  0.07841678  0.65100060     0.16900
H479        H  0.14928076  0.08806473  0.52593055     0.16900
H480        H  0.07455285  0.07783812  0.70833466     0.16900
H481        H  0.08223196  0.48446651  0.57022604     0.16900
O482        O  0.23515356  0.18159201  0.66312228    -0.84600
O483        O  0.30089447  0.14537593  0.69688662    -0.81700
C484        C  0.33661129  0.13888534  0.70148693     0.98900
O485        O  0.36009566  0.17269317  0.69893855    -0.81700
O486        O  0.35503136  0.22221672  0.62385473    -0.84300
C487        C  0.34004540  0.24662704  0.59464578     1.03400
O488        O  0.31530926  0.27761702  0.60166149    -0.77100
O489        O  0.25890494  0.21094539  0.60801607    -0.77300
C490        C  0.23918970  0.18039333  0.62463807     1.03300
O491        O  0.24075268  0.25659253  0.72546896    -0.84600
O492        O  0.30835025  0.21301791  0.76195263    -0.81700
C493        C  0.33822717  0.23809878  0.76937360     0.98900
O494        O  0.35320620  0.25928402  0.74077065    -0.81700
O495        O  0.34941037  0.31315019  0.67045470    -0.84300
C496        C  0.32085314  0.34187226  0.67310587     1.03300
O497        O  0.28630365  0.32814278  0.66627216    -0.77100
O498        O  0.22034333  0.27043717  0.66260565    -0.77300
C499        C  0.21339160  0.26784411  0.69982134     1.03300
Cr500      Cr  0.27319997  0.20244107  0.70977109     1.93700
Cr501      Cr  0.35052590  0.24154348  0.68236821     1.93200
Cr502      Cr  0.27236818  0.26973002  0.63781987     1.39100
O503        O  0.29917554  0.23767380  0.67726921    -1.22400
C504        C  0.28862573  0.34780526  0.91096582     0.30700
C505        C  0.32591392  0.27723958  0.87171165     0.30700
C506        C  0.32692854  0.36103021  0.89287738    -0.05500
C507        C  0.30209473  0.30586004  0.93773415    -0.06200
C508        C  0.26492512  0.32402489  0.87499597    -0.06100
C509        C  0.34573187  0.32555366  0.87164836    -0.05500
C510        C  0.32098745  0.26939974  0.91787924    -0.06200
C511        C  0.28480152  0.28868272  0.85507533    -0.06100
C512        C  0.36461722  0.34904431  0.84198676    -0.31500
N513        N  0.35980313  0.39587254  0.84617556     0.15000
C514        C  0.33786288  0.40343640  0.87775966    -0.31500
H515        H  0.32355184  0.43679050  0.88246893     0.16900
C516        C  0.33371640  0.23739238  0.94782237    -0.30500
N517        N  0.32337825  0.25391028  0.98450397     0.13700
C518        C  0.30400883  0.29537854  0.97864707    -0.30500
C519        C  0.25801882  0.25843254  0.83766357    -0.30800
N520        N  0.22277404  0.27263700  0.84676265     0.14200
H521        H  0.26361520  0.22580961  0.82207178     0.16900
C522        C  0.22600368  0.31192263  0.86953087    -0.30800
H523        H  0.20132614  0.32926316  0.88107546     0.16900
H524        H  0.28869050  0.31533041  0.49972933     0.16900
H525        H  0.37406382  0.33452243  0.81408349     0.16900
H526        H  0.35016387  0.20543182  0.94354188     0.16900
O527        O  0.21554790  0.43373504  0.86165777    -0.84600
O528        O  0.14904773  0.39737028  0.82944900    -0.81700
C529        C  0.11369127  0.39197235  0.82077355     0.98900
O530        O  0.09046586  0.42697727  0.81897211    -0.81700
O531        O  0.09486074  0.97532263  0.89050742    -0.84300
C532        C  0.10741873  0.99855499  0.92141733     1.03400
O533        O  0.13225935  0.02977809  0.91729046    -0.77100
O534        O  0.19089550  0.46572726  0.91539957    -0.77300
C535        C  0.21167359  0.43449665  0.90022989     1.03300
O536        O  0.20742746  0.50656038  0.79637242    -0.84600
O537        O  0.14202917  0.46350503  0.76127053    -0.81700
C538        C  0.11658854  0.49547915  0.75326430     0.98900
O539        O  0.10604039  0.01598336  0.77437034    -0.81700
O540        O  0.10200462  0.06705421  0.84714027    -0.84300
C541        C  0.13015884  0.09571437  0.84757517     1.03300
O542        O  0.16462778  0.08185796  0.85635140    -0.77100
O543        O  0.23121076  0.02443680  0.86132584    -0.77300
C544        C  0.23898713  0.02208525  0.82417153     1.03300
Cr545      Cr  0.17666699  0.45310706  0.81416937     1.93700
Cr546      Cr  0.10325517  0.99648688  0.83318496     1.93200
Cr547      Cr  0.17820185  0.02289129  0.88443524     1.39100
O548        O  0.15008340  0.49011601  0.84496643    -1.22400
O549        O  0.15892187  0.24625572  0.85047067    -0.84600
O550        O  0.10343627  0.31226904  0.83442755    -0.81700
C551        C  0.10241407  0.34449131  0.80792456     0.98900
O552        O  0.09887968  0.33582336  0.77004918    -0.81700
O553        O  0.15172639  0.29259337  0.72422770    -0.84300
C554        C  0.17330064  0.26103836  0.71101396     1.03400
O555        O  0.16197116  0.21985897  0.71338361    -0.77100
O556        O  0.18960417  0.23702438  0.79315468    -0.77300
C557        C  0.18858322  0.25160449  0.82950584     1.03300
O558        O  0.09607082  0.17097413  0.83523075    -0.84600
O559        O  0.04484931  0.24349085  0.81447372    -0.81700
C560        C  0.02636054  0.25301585  0.78054696     0.98900
O561        O  0.04300341  0.26568015  0.74944502    -0.81700
O562        O  0.09063023  0.21834201  0.70272715    -0.84300
C563        C  0.09215791  0.17407518  0.71060719     1.03300
O564        O  0.10851821  0.15848343  0.74381553    -0.77100
O565        O  0.15422063  0.16225434  0.81971872    -0.77300
C566        C  0.12564389  0.14508894  0.83416131     1.03300
Cr567      Cr  0.10172173  0.24251039  0.83038500     1.93700
Cr568      Cr  0.09730764  0.27574074  0.73903130     1.93200
Cr569      Cr  0.15053665  0.19704214  0.76824998     1.39100
O570        O  0.11561549  0.23961292  0.77972697    -1.22400
O571        O  0.29145445  0.49303971  0.66713750    -0.84600
O572        O  0.34313435  0.05833862  0.68828661    -0.81700
C573        C  0.34827038  0.09103850  0.71400463     0.98900
O574        O  0.35539173  0.08285074  0.75175870    -0.81700
O575        O  0.30079416  0.04470861  0.79954489    -0.84300
C576        C  0.27911489  0.01437382  0.81369956     1.03400
O577        O  0.28533162  0.47168667  0.80532017    -0.77100
O578        O  0.25941064  0.48719560  0.72378014    -0.77300
C579        C  0.26156669  0.50084449  0.68721010     1.03300
O580        O  0.35420661  0.41716052  0.68547089    -0.84600
O581        O  0.40410302  0.48969145  0.70544288    -0.81700
C582        C  0.42210587  0.50076936  0.73901815     0.98900
O583        O  0.40832793  0.00839641  0.77390066    -0.81700
O584        O  0.35659425  0.47103175  0.81829751    -0.84300
C585        C  0.35495868  0.42656885  0.81202597     1.03300
O586        O  0.34000560  0.40975059  0.77864993    -0.77100
O587        O  0.29613790  0.40932035  0.70123379    -0.77300
C588        C  0.32497905  0.39151512  0.68687990     1.03300
Cr589      Cr  0.34789465  0.48914327  0.68867234     1.93700
Cr590      Cr  0.35473177  0.02382156  0.78482690     1.93200
Cr591      Cr  0.29825516  0.44725484  0.75127862     1.39100
O592        O  0.33305076  0.48856851  0.73931075    -1.22400
C593        C  0.23053717  0.39733358  0.92713136    -0.15700
C594        C  0.26907618  0.39087793  0.92949051    -0.30900
H595        H  0.21251818  0.36859872  0.93545059     0.13300
H596        H  0.28510335  0.42324807  0.92946277     0.13900
C597        C  0.35739904  0.24431224  0.81154507    -0.15700
C598        C  0.34144421  0.23608363  0.84708126    -0.27700
H599        H  0.38443122  0.26290251  0.81341018     0.13300
H600        H  0.32347920  0.20515644  0.84775876     0.13900
C601        C  0.32281862  0.23022880  0.52285129    -0.15700
C602        C  0.35069420  0.24096642  0.55205742    -0.30900
H603        H  0.29578602  0.21657451  0.53253330     0.13300
H604        H  0.37701195  0.25746525  0.54353662     0.13900
C605        C  0.21957125  0.14327918  0.59960029    -0.15700
C606        C  0.18130973  0.13993569  0.60081368    -0.30900
H607        H  0.23656504  0.11262647  0.59230120     0.13300
H608        H  0.16631256  0.17331190  0.60247369     0.13900
C609        C  0.09685791  0.97681049  0.70964981    -0.15700
C610        C  0.10068696  0.98612993  0.66911653    -0.30900
H611        H  0.11774578  0.55611942  0.71816774     0.13300
H612        H  0.08158861  0.96663968  0.64763469     0.13900
C613        C  0.09172023  0.02474104  0.98897787    -0.15700
C614        C  0.09616740  0.98848973  0.96333345    -0.30900
H615        H  0.09144922  0.05961069  0.47942670     0.13300
H616        H  0.10364104  0.45533246  0.97976976     0.13900
C617        C  0.96504992  0.24323266  0.73969622    -0.15700
C618        C  0.98388668  0.25035940  0.77658091    -0.30900
H619        H  0.98116513  0.23486324  0.71333347     0.13300
H620        H  0.96794774  0.25501451  0.80367546     0.13900
C621        C  0.48424215  0.48917692  0.77845279    -0.15700
C622        C  0.46451729  0.49809791  0.74241628    -0.30900
H623        H  0.47370138  0.99002169  0.80737807     0.13300
H624        H  0.47978963  0.50392546  0.71508267     0.13900
C625        C  0.72432741  0.39093687  0.61040096    -0.15700
C626        C  0.69166297  0.37947694  0.58700482    -0.30900
H627        H  0.73849327  0.36450484  0.62985199     0.13300
H628        H  0.67543905  0.40762117  0.57097730     0.13900
C629        C  0.59703259  0.24572578  0.70893574    -0.15700
C630        C  0.61771898  0.23536669  0.67678870    -0.30900
H631        H  0.57417581  0.27176280  0.70461289     0.13300
H632        H  0.63607138  0.20442165  0.68100710     0.13900
C633        C  0.60183858  0.25690391  0.96667764    -0.15700
C634        C  0.61678804  0.22848057  0.99678626    -0.30900
H635        H  0.59192777  0.29164681  0.97534247     0.13300
H636        H  0.61866142  0.20546762  0.49485146     0.13900
C637        C  0.72891517  0.14744974  0.92467775    -0.15700
C638        C  0.76657262  0.13861235  0.93386517    -0.30900
H639        H  0.70828712  0.12124743  0.93202457     0.13300
H640        H  0.78372985  0.17002003  0.93852995     0.13900
C641        C  0.84637975  0.99322171  0.84784854    -0.15700
C642        C  0.86139347  0.00333095  0.81208938    -0.30900
H643        H  0.81317674  0.45395138  0.84120807     0.13300
H644        H  0.88647602  0.02550024  0.81295479     0.13900
C645        C  0.84964722  0.98281252  0.55308133    -0.15700
C646        C  0.82368885  0.96921832  0.52311278    -0.30900
H647        H  0.87357881  0.00447967  0.54516627     0.13300
H648        H  0.81973260  0.44598465  0.52844351     0.13900
C649        C  0.78845680  0.59534917  0.41277248     0.30700
C650        C  0.82884744  0.52947220  0.37165243     0.30700
C651        C  0.82482493  0.61271278  0.39366928    -0.05500
C652        C  0.80515520  0.55438782  0.43863556    -0.06200
C653        C  0.76517838  0.56974312  0.37751399    -0.06100
C654        C  0.84532937  0.57978499  0.37157073    -0.05500
C655        C  0.82559191  0.52005982  0.41794578    -0.06200
C656        C  0.78661782  0.53679368  0.35645950    -0.06100
C657        C  0.86189124  0.60613928  0.34194736    -0.31500
N658        N  0.85430686  0.65229381  0.34720072     0.15000
C659        C  0.83206068  0.65655071  0.37883955    -0.31500
H660        H  0.81508013  0.68794160  0.38385701     0.16900
C661        C  0.83846924  0.48697481  0.44698852    -0.30500
N662        N  0.82703822  0.50131565  0.48395049     0.13700
C663        C  0.80657746  0.54212771  0.47899412    -0.30500
C664        C  0.74480128  0.00133957  0.35327470    -0.30800
N665        N  0.71166548  0.01523142  0.36864272     0.14200
H666        H  0.74864867  0.96774823  0.33853235     0.16900
C667        C  0.72734334  0.55315524  0.37433273    -0.30800
H668        H  0.70214172  0.56755072  0.38716315     0.16900
H669        H  0.79334469  0.55718151  0.00688009     0.16900
H670        H  0.87128198  0.59343040  0.31331631     0.16900
H671        H  0.84174223  0.94735941  0.44083493     0.16900
O672        O  0.71679216  0.67762962  0.35676535    -0.84600
O673        O  0.64832182  0.64078670  0.33491875    -0.81700
C674        C  0.61345244  0.63478250  0.32474414     0.98900
O675        O  0.59026847  0.66981526  0.32188196    -0.81700
O676        O  0.59917688  0.72157710  0.39792231    -0.84300
C677        C  0.61456091  0.74902106  0.42475029     1.03400
O678        O  0.63929129  0.77869974  0.41523543    -0.77100
O679        O  0.69788079  0.71659923  0.40973637    -0.77300
C680        C  0.71506939  0.68197894  0.39550729     1.03300
O681        O  0.70088433  0.74397820  0.28611199    -0.84600
O682        O  0.63576974  0.70000319  0.26114884    -0.81700
C683        C  0.61079933  0.73237186  0.25206468     0.98900
O684        O  0.59710516  0.75653394  0.28005739    -0.81700
O685        O  0.59967948  0.80923576  0.35078673    -0.84300
C686        C  0.62603918  0.83814416  0.34312595     1.03300
O687        O  0.66116776  0.82536094  0.34418705    -0.77100
O688        O  0.72898195  0.76834509  0.34320169    -0.77300
C689        C  0.73011751  0.76034262  0.30511631     1.03300
Cr690      Cr  0.67414417  0.69332565  0.31167202     1.93700
Cr691      Cr  0.59996843  0.73861166  0.33862391     1.93200
Cr692      Cr  0.67997344  0.77026081  0.37549030     1.39100
O693        O  0.65108175  0.73387761  0.34188849    -1.22400
C694        C  0.66898314  0.83914952  0.10310705     0.30700
C695        C  0.63327905  0.77340117  0.14819682     0.30700
C696        C  0.65238750  0.85632123  0.14172274    -0.05500
C697        C  0.63260240  0.81742222  0.08106513    -0.06200
C698        C  0.69298515  0.79544679  0.11563279    -0.06100
C699        C  0.63487839  0.82403600  0.16581491    -0.05500
C700        C  0.61469150  0.78147108  0.10370268    -0.06200
C701        C  0.67537937  0.76323629  0.13943182    -0.06100
C702        C  0.61135767  0.85124513  0.18950495    -0.31500
N703        N  0.61391511  0.89731168  0.17950722     0.15000
C704        C  0.63756877  0.89996281  0.14915474    -0.31500
H705        H  0.64586056  0.93258977  0.13536290     0.16900
C706        C  0.60051516  0.74947476  0.07438546    -0.30500
N707        N  0.60603341  0.76617326  0.03642713     0.13700
C708        C  0.62628553  0.80647361  0.04045799    -0.30500
C709        C  0.70323559  0.73075231  0.15238257    -0.30800
N710        N  0.73690508  0.74249765  0.13682898     0.14200
H711        H  0.70066570  0.70381117  0.17530129     0.16900
C712        C  0.73061563  0.78063586  0.11270828    -0.30800
H713        H  0.75293125  0.79863370  0.09761195     0.16900
H714        H  0.64062489  0.82277540  0.01590690     0.16900
H715        H  0.59641265  0.83966844  0.21534091     0.16900
H716        H  0.59082279  0.71431528  0.08048783     0.16900
O717        O  0.73077510  0.93809354  0.16978611    -0.84600
O718        O  0.79845181  0.89301727  0.18950612    -0.81700
C719        C  0.83404063  0.88486249  0.19456738     0.98900
O720        O  0.85804615  0.91847248  0.19562170    -0.81700
O721        O  0.85322174  0.46237141  0.12332475    -0.84300
C722        C  0.83888371  0.48645945  0.09368000     1.03400
O723        O  0.81428411  0.51826760  0.09934993    -0.77100
O724        O  0.74974524  0.96936047  0.11388229    -0.77300
C725        C  0.73333057  0.93656158  0.13125170     1.03300
O726        O  0.75081628  0.00309132  0.23779289    -0.84600
O727        O  0.81448624  0.95126083  0.26126125    -0.81700
C728        C  0.84026605  0.98162306  0.27006731     0.98900
O729        O  0.85801946  0.50716599  0.23826186    -0.81700
O730        O  0.85526407  0.55448302  0.16516161    -0.84300
C731        C  0.82974556  0.58628880  0.16958166     1.03300
O732        O  0.79404574  0.57735092  0.16422814    -0.77100
O733        O  0.72352587  0.52824878  0.16690554    -0.77300
C734        C  0.71746929  0.52437994  0.20420716     1.03300
Cr735      Cr  0.77515363  0.94905005  0.21233176     1.93700
Cr736      Cr  0.85202509  0.48533593  0.18071220     1.93200
Cr737      Cr  0.77337732  0.51921211  0.13890552     1.39100
O738        O  0.79867021  0.98704901  0.18034223    -1.22400
O739        O  0.64438614  0.01350520  0.36550993    -0.84600
O740        O  0.60976034  0.55428539  0.33642753    -0.81700
C741        C  0.60347505  0.58718953  0.31108814     0.98900
O742        O  0.59618953  0.57947403  0.27321433    -0.81700
O743        O  0.65373921  0.54313224  0.22747194    -0.84300
C744        C  0.67774260  0.51375429  0.21509369     1.03400
O745        O  0.68898283  0.00668271  0.27726198    -0.77100
O746        O  0.67491439  0.95287112  0.34487399    -0.77300
C747        C  0.67574902  0.99197923  0.36201344     1.03300
O748        O  0.60774932  0.91943008  0.35238382    -0.84600
O749        O  0.54522919  0.96812310  0.31334928    -0.81700
C750        C  0.52724840  0.99037969  0.28443701     0.98900
O751        O  0.54450799  0.01802437  0.26171032    -0.81700
O752        O  0.58858967  0.96022303  0.21570450    -0.84300
C753        C  0.61651799  0.93305635  0.20939082     1.03300
O754        O  0.64906549  0.93899543  0.22781446    -0.77100
O755        O  0.62806639  0.89467015  0.29400521    -0.77300
C756        C  0.61733170  0.88598155  0.32881287     1.03300
Cr757      Cr  0.59555932  0.98903431  0.33814955     1.93700
Cr758      Cr  0.59987031  0.52074753  0.23947541     1.93200
Cr759      Cr  0.65806926  0.95067568  0.28642620     1.39100
O760        O  0.61694661  0.98614903  0.29052683    -1.22400
O761        O  0.80212279  0.75568675  0.15478496    -0.84600
O762        O  0.86307061  0.80832345  0.18620879    -0.81700
C763        C  0.84484031  0.83690380  0.20798125     0.98900
O764        O  0.83223540  0.82384217  0.24124350    -0.81700
O765        O  0.79911425  0.76797879  0.29917341    -0.84300
C766        C  0.76560290  0.75938364  0.28272900     1.03400
O767        O  0.76240348  0.74113403  0.24766381    -0.77100
O768        O  0.77572804  0.69282879  0.17798071    -0.77300
C769        C  0.77346678  0.72908654  0.15599652     1.03300
O770        O  0.84571426  0.66818380  0.16418110    -0.84600
O771        O  0.90576711  0.72115272  0.20355874    -0.81700
C772        C  0.92268199  0.74525273  0.23166128     0.98900
O773        O  0.90404616  0.77305332  0.25348857    -0.81700
O774        O  0.86985391  0.71244317  0.30357063    -0.84300
C775        C  0.84626512  0.68184565  0.31294470     1.03300
O776        O  0.81354979  0.67844158  0.29378101    -0.77100
O777        O  0.83349595  0.63866706  0.22345250    -0.77300
C778        C  0.84001720  0.63266085  0.18668245     1.03300
Cr779      Cr  0.85343534  0.73770121  0.18044287     1.93700
Cr780      Cr  0.85033787  0.76733380  0.27125062     1.93200
Cr781      Cr  0.79862748  0.69054098  0.23535292     1.39100
O782        O  0.83462203  0.73169710  0.22905919    -1.22400
C783        C  0.16507690  0.60314603  0.10329939     0.30700
C784        C  0.12608271  0.53570057  0.14214210     0.30700
C785        C  0.12670250  0.61848126  0.12047804    -0.05500
C786        C  0.15226492  0.56095587  0.07652380    -0.06200
C787        C  0.18827211  0.57918638  0.13934317    -0.06100
C788        C  0.10659179  0.58422720  0.13981767    -0.05500
C789        C  0.13138160  0.52525580  0.09612577    -0.06200
C790        C  0.16773154  0.54482885  0.15821361    -0.06100
C791        C  0.08173463  0.60698193  0.16448515    -0.31500
N792        N  0.08833804  0.65362025  0.16307944     0.15000
C793        C  0.11431616  0.66094554  0.13498427    -0.31500
H794        H  0.12952570  0.69371767  0.13253207     0.16900
C795        C  0.10578359  0.50754493  0.06525559    -0.30500
N796        N  0.11207794  0.52903127  0.02930268     0.13700
C797        C  0.13947476  0.56174410  0.03619472    -0.30500
C798        C  0.19322788  0.01124974  0.17577805    -0.30800
N799        N  0.22897741  0.02402943  0.16859145     0.14200
H800        H  0.18630865  0.97873818  0.19066335     0.16900
C801        C  0.22697015  0.56486552  0.14519301    -0.30800
H802        H  0.25215506  0.58153334  0.13473836     0.16900
H803        H  0.14622521  0.58838043  0.01427250     0.16900
H804        H  0.06583409  0.59067920  0.18780473     0.16900
H805        H  0.08159643  0.98410109  0.06826099     0.16900
O806        O  0.23367493  0.68665576  0.15477749    -0.84600
O807        O  0.29925500  0.64780497  0.18833042    -0.81700
C808        C  0.33490814  0.64159218  0.19516772     0.98900
O809        O  0.35821054  0.67573014  0.19444866    -0.81700
O810        O  0.35378719  0.72789258  0.12028076    -0.84300
C811        C  0.34083250  0.75597890  0.09270983     1.03400
O812        O  0.31584605  0.78630504  0.10063475    -0.77100
O813        O  0.25856264  0.72033907  0.10216831    -0.77300
C814        C  0.23880750  0.68823627  0.11642950     1.03300
O815        O  0.23993468  0.75813047  0.22159663    -0.84600
O816        O  0.30629959  0.71174472  0.25654438    -0.81700
C817        C  0.33579763  0.73718766  0.26536166     0.98900
O818        O  0.35056856  0.76053611  0.23790067    -0.81700
O819        O  0.34890625  0.81656406  0.16928089    -0.84300
C820        C  0.32069975  0.84536922  0.17305446     1.03300
O821        O  0.28599644  0.83217509  0.16688846    -0.77100
O822        O  0.21958207  0.77592664  0.15955482    -0.77300
C823        C  0.21283345  0.77187964  0.19675444     1.03300
Cr824      Cr  0.27145295  0.70431881  0.20342950     1.93700
Cr825      Cr  0.34908055  0.74481554  0.17923585     1.93200
Cr826      Cr  0.27191058  0.77641689  0.13528524     1.39100
O827        O  0.29790781  0.74143923  0.17318122    -1.22400
C828        C  0.28710815  0.84250663  0.40894642     0.30700
C829        C  0.32403297  0.77282100  0.36830823     0.30700
C830        C  0.32487697  0.85629097  0.39008462    -0.05500
C831        C  0.30125511  0.80043797  0.43508824    -0.06200
C832        C  0.26279385  0.81880169  0.37324321    -0.06100
C833        C  0.34348637  0.82137511  0.36823485    -0.05500
C834        C  0.31981370  0.76422508  0.41458694    -0.06200
C835        C  0.28270159  0.78418633  0.35245870    -0.06100
C836        C  0.36261095  0.84557757  0.33914586    -0.31500
N837        N  0.35838863  0.89237998  0.34456123     0.15000
C838        C  0.33607750  0.89911637  0.37599743    -0.31500
H839        H  0.32200571  0.93242970  0.38150660     0.16900
C840        C  0.33620755  0.73431356  0.44459842    -0.30500
N841        N  0.32836493  0.75183616  0.48183675     0.13700
C842        C  0.30715150  0.79206722  0.47621342    -0.30500
C843        C  0.25618375  0.75403073  0.33455623    -0.30800
N844        N  0.22098096  0.76704227  0.34447930     0.14200
H845        H  0.26196362  0.72220666  0.31788324     0.16900
C846        C  0.22399748  0.80572985  0.36827441    -0.30800
H847        H  0.19936864  0.82203736  0.38085729     0.16900
H848        H  0.29550959  0.81130606  0.00093532     0.16900
H849        H  0.37221670  0.83169767  0.31100757     0.16900
H850        H  0.35436850  0.70388598  0.43988908     0.16900
O851        O  0.21799086  0.93328226  0.36118715    -0.84600
O852        O  0.15204026  0.89635734  0.32783359    -0.81700
C853        C  0.11636857  0.89097129  0.32113471     0.98900
O854        O  0.09306423  0.92579290  0.32113670    -0.81700
O855        O  0.09571026  0.47250153  0.39502065    -0.84300
C856        C  0.10856621  0.49736173  0.42457817     1.03400
O857        O  0.13195385  0.52989985  0.41849722    -0.77100
O858        O  0.19340569  0.96443840  0.41540215    -0.77300
C859        C  0.21348914  0.93290575  0.39962216     1.03300
O860        O  0.20948982  0.00776487  0.29716118    -0.84600
O861        O  0.14466034  0.96405679  0.26122187    -0.81700
C862        C  0.11819144  0.99481930  0.25357210     0.98900
O863        O  0.10094341  0.51502197  0.28123420    -0.81700
O864        O  0.09886820  0.56558000  0.35090052    -0.84300
C865        C  0.12640508  0.59438492  0.34631197     1.03300
O866        O  0.16125776  0.58146994  0.35404962    -0.77100
O867        O  0.22902047  0.52561319  0.35814265    -0.77300
C868        C  0.23546371  0.52223287  0.32063288     1.03300
Cr869      Cr  0.17924181  0.95321891  0.31394244     1.93700
Cr870      Cr  0.10046772  0.49425236  0.33786234     1.93200
Cr871      Cr  0.17685300  0.52391998  0.38362832     1.39100
O872        O  0.15264298  0.98936012  0.34554885    -1.22400
O873        O  0.15748117  0.74003916  0.34723011    -0.84600
O874        O  0.10635526  0.81049726  0.33297935    -0.81700
C875        C  0.10422641  0.84394807  0.30770523     0.98900
O876        O  0.09807669  0.83710209  0.26983212    -0.81700
O877        O  0.15173158  0.79653603  0.22285676    -0.84300
C878        C  0.17296713  0.76539091  0.20831557     1.03400
O879        O  0.16145094  0.72420529  0.20884920    -0.77100
O880        O  0.18798889  0.73248861  0.28987504    -0.77300
C881        C  0.18704461  0.74589098  0.32661058     1.03300
O882        O  0.09284303  0.66997389  0.33088541    -0.84600
O883        O  0.04445118  0.74636993  0.31085751    -0.81700
C884        C  0.02604367  0.75578512  0.27691204     0.98900
O885        O  0.04254575  0.76791551  0.24548849    -0.81700
O886        O  0.09068964  0.72660330  0.19463369    -0.84300
C887        C  0.09138413  0.68193332  0.19890730     1.03300
O888        O  0.10496788  0.66291825  0.23207543    -0.77100
O889        O  0.14867573  0.65580264  0.30919563    -0.77300
C890        C  0.12110797  0.64214428  0.32805188     1.03300
Cr891      Cr  0.10099195  0.74120352  0.32653319     1.93700
Cr892      Cr  0.09690210  0.77928047  0.23595591     1.93200
Cr893      Cr  0.14765509  0.69674806  0.26118037     1.39100
O894        O  0.11416442  0.73974391  0.27511470    -1.22400
O895        O  0.29241836  0.99513649  0.16797974    -0.84600
O896        O  0.34644576  0.56133940  0.18328738    -0.81700
C897        C  0.34681378  0.59427727  0.20907969     0.98900
O898        O  0.35025895  0.58664491  0.24723167    -0.81700
O899        O  0.29664916  0.54635838  0.29440990    -0.84300
C900        C  0.27522371  0.51534634  0.30804296     1.03400
O901        O  0.28672668  0.97213546  0.30566193    -0.77100
O902        O  0.26040246  0.98984296  0.22467475    -0.77300
C903        C  0.26235164  0.00250259  0.18784472     1.03300
O904        O  0.35500319  0.91952644  0.18577083    -0.84600
O905        O  0.40510860  0.99162321  0.20577127    -0.81700
C906        C  0.42337138  0.00022928  0.23974575     0.98900
O907        O  0.40663317  0.51533851  0.27103356    -0.81700
O908        O  0.35747676  0.96884006  0.31882790    -0.84300
C909        C  0.35488837  0.92460818  0.31136796     1.03300
O910        O  0.34001309  0.90951540  0.27740211    -0.77100
O911        O  0.29652801  0.91281100  0.20049456    -0.77300
C912        C  0.32538760  0.89453928  0.18672703     1.03300
Cr913      Cr  0.34882522  0.99126702  0.18950868     1.93700
Cr914      Cr  0.35156281  0.52763191  0.28019490     1.93200
Cr915      Cr  0.29885988  0.94876646  0.25125755     1.39100
O916        O  0.33420408  0.98969359  0.24013971    -1.22400
C917        C  0.23030708  0.89374222  0.42544655    -0.15700
C918        C  0.26854427  0.88527689  0.42887915    -0.30900
H919        H  0.21094837  0.86579592  0.43221855     0.13300
H920        H  0.28573528  0.91681413  0.43057765     0.13900
C921        C  0.35520039  0.74102086  0.30766030    -0.15700
C922        C  0.33917124  0.73208477  0.34295197    -0.27700
H923        H  0.38215046  0.75980262  0.31006360     0.13300
H924        H  0.32128111  0.70106133  0.34324227     0.13900
C925        C  0.33725550  0.72909937  0.02191703    -0.15700
C926        C  0.35441902  0.75632651  0.05128586    -0.30900
H927        H  0.32307946  0.69703693  0.03036696     0.13300
H928        H  0.36626262  0.78944282  0.04178212     0.13900
C929        C  0.22239827  0.65150303  0.08844848    -0.15700
C930        C  0.18421357  0.64510193  0.08413028    -0.30900
H931        H  0.24146846  0.62278456  0.08130238     0.13300
H932        H  0.16742476  0.67750724  0.08306716     0.13900
C933        C  0.11293220  0.51893450  0.21308354    -0.15700
C934        C  0.11057897  0.50224766  0.17386903    -0.30900
H935        H  0.11870378  0.05525443  0.21793995     0.13300
H936        H  0.10581450  0.46534291  0.16708005     0.13900
C937        C  0.09175665  0.52451447  0.49097436    -0.15700
C938        C  0.09861793  0.48797522  0.46673438    -0.30900
H939        H  0.08304104  0.55954466  0.97550435     0.13300
H940        H  0.10735712  0.95398825  0.48204684     0.13900
C941        C  0.96484878  0.74309001  0.23737323    -0.15700
C942        C  0.98378883  0.75313172  0.27349287    -0.30900
H943        H  0.98075706  0.73296107  0.21128654     0.13300
H944        H  0.96810202  0.75956256  0.30052245     0.13900
C945        C  0.48511934  0.98671390  0.27892632    -0.15700
C946        C  0.46566034  0.99656587  0.24296136    -0.30900
H947        H  0.47315286  0.49550885  0.30737106     0.13300
H948        H  0.48104211  0.00295592  0.21579344     0.13900
C949        C  0.72495475  0.89163430  0.11015696    -0.15700
C950        C  0.69194775  0.88030300  0.08727486    -0.30900
H951        H  0.73958460  0.86476745  0.12875219     0.13300
H952        H  0.67531392  0.90864234  0.07199984     0.13900
C953        C  0.59799845  0.74488172  0.20861893    -0.15700
C954        C  0.61902755  0.73489644  0.17666779    -0.30900
H955        H  0.57519943  0.77101876  0.20422672     0.13300
H956        H  0.63748663  0.70406782  0.18092480     0.13900
C957        C  0.60271311  0.75053413  0.46696374    -0.15700
C958        C  0.62203372  0.72560368  0.49698542    -0.30900
H959        H  0.58798785  0.78258726  0.47552903     0.13300
H960        H  0.61574424  0.70654579  0.99647096     0.13900
C961        C  0.72996311  0.64457450  0.42428292    -0.15700
C962        C  0.76773825  0.63609996  0.43304274    -0.30900
H963        H  0.70957376  0.61841878  0.43240626     0.13300
H964        H  0.78471556  0.66769403  0.43725957     0.13900
C965        C  0.84656362  0.49067891  0.34609186    -0.15700
C966        C  0.86127869  0.50111862  0.31027046    -0.30900
H967        H  0.81200437  0.95451101  0.34219286     0.13300
H968        H  0.88650755  0.52307789  0.31129259     0.13900
C969        C  0.85151567  0.48056607  0.05210196    -0.15700
C970        C  0.82518636  0.46868344  0.02189036    -0.30900
H971        H  0.87663441  0.50036213  0.04459116     0.13300
H972        H  0.81757596  0.94887185  0.02952626     0.13900
C973        C  0.78474358  0.59327490  0.91693799     0.30700
C974        C  0.81767362  0.52399205  0.87186816     0.30700
C975        C  0.81963111  0.60748980  0.89397324    -0.05500
C976        C  0.80200318  0.55137262  0.94149050    -0.06200
C977        C  0.75729234  0.56916114  0.88424209    -0.06100
C978        C  0.83569154  0.57335386  0.86960148    -0.05500
C979        C  0.81879349  0.51544306  0.91883020    -0.06200
C980        C  0.77444289  0.53354990  0.86166184    -0.06100
C981        C  0.85392825  0.59853090  0.84051220    -0.31500
N982        N  0.85222997  0.64503924  0.84903141     0.15000
C983        C  0.83205225  0.65056397  0.88219161    -0.31500
H984        H  0.82004373  0.68419280  0.89059496     0.16900
C985        C  0.83071763  0.48063589  0.94666222    -0.30500
N986        N  0.82230571  0.49530067  0.98465001     0.13700
C987        C  0.80462133  0.53803942  0.98167150    -0.30500
C988        C  0.76093428  0.00531929  0.84206212    -0.30800
N989        N  0.72520980  0.01547389  0.85261899     0.14200
H990        H  0.76829112  0.97357927  0.82608724     0.16900
C991        C  0.71886965  0.55630935  0.88618236    -0.30800
H992        H  0.69680864  0.57299466  0.90261850     0.16900
H993        H  0.79390097  0.56152509  0.50322970     0.16900
H994        H  0.86018381  0.58616252  0.81053847     0.16900
H995        H  0.85491360  0.95856004  0.94334174     0.16900
O996        O  0.71377893  0.67379562  0.86595912    -0.84600
O997        O  0.64394440  0.63863455  0.83940084    -0.81700
C998        C  0.60876175  0.63517448  0.82846839     0.98900
O999        O  0.58700531  0.67159338  0.82593808    -0.81700
O1000       O  0.59296172  0.72728715  0.89895960    -0.84300
C1001       C  0.60730459  0.75552416  0.92550286     1.03400
O1002       O  0.63569123  0.78075456  0.91800060    -0.77100
O1003       O  0.69273512  0.71393437  0.91736334    -0.77300
C1004       C  0.71174105  0.67986100  0.90455301     1.03300
O1005       O  0.70292429  0.73941177  0.79458079    -0.84600
O1006       O  0.63768431  0.69630276  0.76537462    -0.81700
C1007       C  0.61256963  0.72783006  0.75443096     0.98900
O1008       O  0.59930212  0.75459005  0.78089481    -0.81700
O1009       O  0.60118114  0.81218392  0.84887660    -0.84300
C1010       C  0.63002328  0.83848792  0.84361243     1.03300
O1011       O  0.66413469  0.82235256  0.84806492    -0.77100
O1012       O  0.72906060  0.76314463  0.85290157    -0.77300
C1013       C  0.73120244  0.75670042  0.81483496     1.03300
Cr1014     Cr  0.67326272  0.69000097  0.81835348     1.93700
Cr1015     Cr  0.59877563  0.74051245  0.83994176     1.93200
Cr1016     Cr  0.67828430  0.76762894  0.88149310     1.39100
O1017       O  0.64966759  0.73213084  0.84676875    -1.22400
C1018       C  0.66182093  0.84138540  0.60935741     0.30700
C1019       C  0.63048552  0.76933649  0.65095533     0.30700
C1020       C  0.62303104  0.85287639  0.62791440    -0.05500
C1021       C  0.64996169  0.79885178  0.58322177    -0.06200
C1022       C  0.68802469  0.81833610  0.64376189    -0.06100
C1023       C  0.60878260  0.81746626  0.65215062    -0.05500
C1024       C  0.63351643  0.76150327  0.60392270    -0.06200
C1025       C  0.67192352  0.78173506  0.66497834    -0.06100
C1026       C  0.59161591  0.84219634  0.68273560    -0.31500
N1027       N  0.59100982  0.88905659  0.67470285     0.15000
C1028       C  0.60635013  0.89488832  0.63853553    -0.31500
H1029       H  0.61210542  0.92904010  0.62595966     0.16900
C1030       C  0.62173724  0.72915064  0.57388117    -0.30500
N1031       N  0.62976378  0.74673399  0.53669042     0.13700
C1032       C  0.64709129  0.78899144  0.54229841    -0.30500
C1033       C  0.70173661  0.75061738  0.67587237    -0.30800
N1034       N  0.73471785  0.76644201  0.66211055     0.14200
H1035       H  0.69920919  0.71658248  0.69005057     0.16900
C1036       C  0.72707462  0.80757579  0.64276621    -0.30800
H1037       H  0.74761356  0.82594133  0.62541567     0.16900
H1038       H  0.65601632  0.81141057  0.51808222     0.16900
H1039       H  0.58797111  0.82906519  0.71308018     0.16900
H1040       H  0.60707753  0.69641696  0.57846892     0.16900
O1041       O  0.73344120  0.93689026  0.67445815    -0.84600
O1042       O  0.79861883  0.89600964  0.70891705    -0.81700
C1043       C  0.83376807  0.88598095  0.70697965     0.98900
O1044       O  0.85810711  0.91656965  0.69825809    -0.81700
O1045       O  0.84983325  0.47226506  0.62185872    -0.84300
C1046       C  0.83512325  0.50030965  0.59509354     1.03400
O1047       O  0.80892672  0.52915702  0.60351438    -0.77100
O1048       O  0.75004533  0.96246225  0.61445163    -0.77300
C1049       C  0.72850423  0.93798986  0.63549272     1.03300
O1050       O  0.74515430  0.01509016  0.73067094    -0.84600
O1051       O  0.81127991  0.96989961  0.76647487    -0.81700
C1052       C  0.84314262  0.99132273  0.77069929     0.98900
O1053       O  0.85431605  0.50511406  0.74044849    -0.81700
O1054       O  0.85110669  0.55931181  0.66979323    -0.84300
C1055       C  0.82515019  0.59041284  0.67516157     1.03300
O1056       O  0.78954894  0.58023809  0.67254639    -0.77100
O1057       O  0.72123734  0.52726234  0.67787784    -0.77300
C1058       C  0.72070313  0.52195271  0.71636847     1.03300
Cr1059     Cr  0.77424019  0.95702709  0.71727164     1.93700
Cr1060     Cr  0.84943119  0.48861483  0.68104499     1.93200
Cr1061     Cr  0.76917198  0.52396606  0.64422798     1.39100
O1062       O  0.79995075  0.98637071  0.68032436    -1.22400
O1063       O  0.66173710  0.98666127  0.85343435    -0.84600
O1064       O  0.58039265  0.55933177  0.83109489    -0.81700
C1065       C  0.59711179  0.58977491  0.81051446     0.98900
O1066       O  0.60948015  0.57955102  0.77612288    -0.81700
O1067       O  0.65126585  0.52795309  0.72036326    -0.84300
C1068       C  0.68493849  0.52312048  0.73840808     1.03400
O1069       O  0.66797291  0.97332837  0.71632198    -0.77100
O1070       O  0.69346958  0.98251149  0.79676834    -0.77300
C1071       C  0.69180577  0.99402005  0.83374644     1.03300
O1072       O  0.59780256  0.91476025  0.83318629    -0.84600
O1073       O  0.54857711  0.98922121  0.81515141    -0.81700
C1074       C  0.52976502  0.99509941  0.78084550     0.98900
O1075       O  0.54589325  0.00523742  0.74872130    -0.81700
O1076       O  0.59749058  0.96690904  0.69968838    -0.84300
C1077       C  0.59914621  0.92247404  0.70684055     1.03300
O1078       O  0.61480019  0.90691344  0.74026739    -0.77100
O1079       O  0.65598221  0.90490589  0.81709472    -0.77300
C1080       C  0.62671059  0.88810539  0.83082065     1.03300
Cr1081     Cr  0.60505719  0.98585319  0.83138745     1.93700
Cr1082     Cr  0.59859950  0.52084532  0.74536493     1.93200
Cr1083     Cr  0.65510485  0.94443652  0.76830764     1.39100
O1084       O  0.61911824  0.98513112  0.78060990    -1.22400
O1085       O  0.80185415  0.76598104  0.66522086    -0.84600
O1086       O  0.86436026  0.81093945  0.69762522    -0.81700
C1087       C  0.84531959  0.83824106  0.71973859     0.98900
O1088       O  0.83334622  0.82411500  0.75302640    -0.81700
O1089       O  0.80041594  0.76596532  0.80988112    -0.84300
C1090       C  0.76664041  0.76037121  0.79284261     1.03400
O1091       O  0.76329582  0.74762609  0.75622046    -0.77100
O1092       O  0.77366596  0.70349179  0.68495727    -0.77300
C1093       C  0.77141697  0.74375414  0.66915080     1.03300
O1094       O  0.84165584  0.67289823  0.66964787    -0.84600
O1095       O  0.90453785  0.72161612  0.70970608    -0.81700
C1096       C  0.92248722  0.74486786  0.73781154     0.98900
O1097       O  0.90465101  0.77142565  0.76152366    -0.81700
O1098       O  0.86971948  0.70806259  0.80937236    -0.84300
C1099       C  0.84508000  0.67783434  0.81706238     1.03300
O1100       O  0.81165006  0.67841452  0.79907410    -0.77100
O1101       O  0.82855108  0.64226316  0.72825464    -0.77300
C1102       C  0.83521830  0.63697342  0.69165320     1.03300
Cr1103     Cr  0.85240881  0.74165282  0.68832678     1.93700
Cr1104     Cr  0.85121289  0.76592531  0.78053225     1.93200
Cr1105     Cr  0.79626987  0.69518827  0.74180718     1.39100
O1106       O  0.83421304  0.73362380  0.73702864    -1.22400
C1107       C  0.16546995  0.60314277  0.60410485     0.30700
C1108       C  0.12583023  0.53612765  0.64274996     0.30700
C1109       C  0.12696598  0.61877137  0.62082647    -0.05500
C1110       C  0.15264764  0.56094047  0.57735984    -0.06200
C1111       C  0.18830736  0.57917585  0.64047998    -0.06100
C1112       C  0.10651886  0.58474930  0.64007420    -0.05500
C1113       C  0.13160568  0.52540222  0.59692330    -0.06200
C1114       C  0.16733513  0.54517942  0.65936043    -0.06100
C1115       C  0.08150781  0.60782829  0.66435206    -0.31500
N1116       N  0.08832439  0.65442283  0.66278976     0.15000
C1117       C  0.11454867  0.66140320  0.63490653    -0.31500
H1118       H  0.12990889  0.69407962  0.63243410     0.16900
C1119       C  0.10640836  0.50719962  0.56596500    -0.30500
N1120       N  0.11297474  0.52836247  0.52996250     0.13700
C1121       C  0.14009209  0.56142728  0.53692894    -0.30500
C1122       C  0.18995047  0.00025396  0.68283229    -0.30800
N1123       N  0.22540574  0.01618033  0.67697580     0.14200
H1124       H  0.18414911  0.96525365  0.69353808     0.16900
C1125       C  0.22684748  0.56406903  0.64645561    -0.30800
H1126       H  0.25221076  0.57995117  0.63568350     0.16900
H1127       H  0.14695049  0.58787007  0.51488731     0.16900
H1128       H  0.06532733  0.59178876  0.68757469     0.16900
H1129       H  0.08315773  0.97861786  0.57014769     0.16900
O1130       O  0.23404984  0.68696574  0.65554047    -0.84600
O1131       O  0.29885007  0.64700878  0.68882235    -0.81700
C1132       C  0.33449457  0.63981183  0.69383921     0.98900
O1133       O  0.35835430  0.67331667  0.69206108    -0.81700
O1134       O  0.35339046  0.72805105  0.61907825    -0.84300
C1135       C  0.34083108  0.75772072  0.59266180     1.03400
O1136       O  0.31609033  0.78771333  0.60176511    -0.77100
O1137       O  0.25875638  0.72087083  0.60280987    -0.77300
C1138       C  0.23917923  0.68856553  0.61718487     1.03300
O1139       O  0.24074294  0.75818122  0.72255712    -0.84600
O1140       O  0.30713198  0.71124831  0.75715672    -0.81700
C1141       C  0.33730249  0.73568734  0.76555808     0.98900
O1142       O  0.35296902  0.75721913  0.73766126    -0.81700
O1143       O  0.34975805  0.81524082  0.67075846    -0.84300
C1144       C  0.32160111  0.84380172  0.67584280     1.03300
O1145       O  0.28683798  0.83121731  0.66898041    -0.77100
O1146       O  0.22030859  0.77597819  0.66060689    -0.77300
C1147       C  0.21362616  0.77216464  0.69777676     1.03300
Cr1148     Cr  0.27196455  0.70405561  0.70414242     1.93700
Cr1149     Cr  0.34981078  0.74310623  0.67867104     1.93200
Cr1150     Cr  0.27245985  0.77653346  0.63641618     1.39100
O1151       O  0.29855403  0.74074751  0.67365848    -1.22400
C1152       C  0.28682977  0.84094039  0.90977558     0.30700
C1153       C  0.32523086  0.77212301  0.86934456     0.30700
C1154       C  0.32551723  0.85493069  0.89301780    -0.05500
C1155       C  0.29977478  0.79798956  0.93552257    -0.06200
C1156       C  0.26384777  0.81836918  0.87269327    -0.06100
C1157       C  0.34502394  0.82052353  0.87150599    -0.05500
C1158       C  0.31908739  0.76221270  0.91507796    -0.06200
C1159       C  0.28443226  0.78421944  0.85195275    -0.06100
C1160       C  0.36637930  0.84537175  0.84477077    -0.31500
N1161       N  0.36171907  0.89210750  0.85064058     0.15000
C1162       C  0.33785444  0.89805435  0.88083635    -0.31500
H1163       H  0.32358872  0.93127629  0.88622004     0.16900
C1164       C  0.33536268  0.73230679  0.94518201    -0.30500
N1165       N  0.32642400  0.74908198  0.98231243     0.13700
C1166       C  0.30501579  0.78912149  0.97664749    -0.30500
C1167       C  0.25826597  0.75402439  0.83326160    -0.30800
N1168       N  0.22287044  0.76645403  0.84285601     0.14200
H1169       H  0.26442523  0.72206147  0.81697581     0.16900
C1170       C  0.22528001  0.80482432  0.86697805    -0.30800
H1171       H  0.20040636  0.82020778  0.87976392     0.16900
H1172       H  0.29801590  0.81456300  0.50047189     0.16900
H1173       H  0.37803435  0.83215694  0.81745221     0.16900
H1174       H  0.35420137  0.70245073  0.94066061     0.16900
O1175       O  0.22012952  0.93552941  0.86182691    -0.84600
O1176       O  0.15418963  0.89826950  0.82792860    -0.81700
C1177       C  0.11872483  0.89293726  0.81880822     0.98900
O1178       O  0.09572444  0.92817363  0.81540784    -0.81700
O1179       O  0.09336020  0.47322395  0.89472786    -0.84300
C1180       C  0.10630237  0.49793773  0.92433501     1.03400
O1181       O  0.13042539  0.52981216  0.91854080    -0.77100
O1182       O  0.19166483  0.96337867  0.91462511    -0.77300
C1183       C  0.21335898  0.93300729  0.89953198     1.03300
O1184       O  0.21275570  0.00950048  0.79803430    -0.84600
O1185       O  0.14876051  0.96228092  0.76023786    -0.81700
C1186       C  0.12054265  0.98915430  0.74851551     0.98900
O1187       O  0.10001584  0.51563608  0.78136014    -0.81700
O1188       O  0.09782774  0.56628513  0.85101031    -0.84300
C1189       C  0.12564686  0.59469647  0.84649735     1.03300
O1190       O  0.16035685  0.58103875  0.85402479    -0.77100
O1191       O  0.22787189  0.52406128  0.85845674    -0.77300
C1192       C  0.23446498  0.51999854  0.82101122     1.03300
Cr1193     Cr  0.18224499  0.95474627  0.81375115     1.93700
Cr1194     Cr  0.09886490  0.49490873  0.83777825     1.93200
Cr1195     Cr  0.17550758  0.52334613  0.88386284     1.39100
O1196       O  0.15417276  0.99135940  0.84334110    -1.22400
O1197       O  0.15977625  0.73921123  0.84667346    -0.84600
O1198       O  0.11134447  0.81201197  0.83200179    -0.81700
C1199       C  0.10664266  0.84529052  0.80665187     0.98900
O1200       O  0.09722787  0.83786501  0.76940825    -0.81700
O1201       O  0.15220873  0.79719933  0.72313648    -0.84300
C1202       C  0.17364574  0.76588826  0.70901163     1.03400
O1203       O  0.16184754  0.72475775  0.70884010    -0.77100
O1204       O  0.18954430  0.73045326  0.78912060    -0.77300
C1205       C  0.18907519  0.74445767  0.82567941     1.03300
O1206       O  0.09362603  0.67179720  0.83204338    -0.84600
O1207       O  0.04668660  0.75033519  0.81225379    -0.81700
C1208       C  0.02746754  0.75726435  0.77826879     0.98900
O1209       O  0.04321605  0.76686732  0.74572379    -0.81700
O1210       O  0.09148885  0.72740771  0.69423625    -0.84300
C1211       C  0.09140265  0.68282519  0.69854517     1.03300
O1212       O  0.10443338  0.66377130  0.73182855    -0.77100
O1213       O  0.14822268  0.65484758  0.80819533    -0.77300
C1214       C  0.12090991  0.64261930  0.82814926     1.03300
Cr1215     Cr  0.10336400  0.74280640  0.82681200     1.93700
Cr1216     Cr  0.09735097  0.77956880  0.73593698     1.93200
Cr1217     Cr  0.14797419  0.69636768  0.76066842     1.39100
O1218       O  0.11529950  0.74017968  0.77508727    -1.22400
O1219       O  0.28981977  0.99046413  0.67425965    -0.84600
O1220       O  0.34601790  0.55902295  0.68225398    -0.81700
C1221       C  0.34573385  0.59221676  0.70782565     0.98900
O1222       O  0.34780329  0.58473878  0.74594493    -0.81700
O1223       O  0.29514278  0.54414619  0.79386558    -0.84300
C1224       C  0.27421970  0.51312102  0.80824711     1.03400
O1225       O  0.28988500  0.97263108  0.81216192    -0.77100
O1226       O  0.25999149  0.98420504  0.73219196    -0.77300
C1227       C  0.26007025  0.99611499  0.69508636     1.03300
O1228       O  0.35498858  0.91787468  0.68962712    -0.84600
O1229       O  0.40409439  0.99119675  0.70764401    -0.81700
C1230       C  0.42368822  0.99742512  0.74138390     0.98900
O1231       O  0.40505738  0.51509684  0.76961948    -0.81700
O1232       O  0.35995311  0.96851135  0.82441135    -0.84300
C1233       C  0.35818894  0.92421751  0.81736451     1.03300
O1234       O  0.34355514  0.90877199  0.78357205    -0.77100
O1235       O  0.29807802  0.90785389  0.70886058    -0.77300
C1236       C  0.32630559  0.89175762  0.69214275     1.03300
Cr1237     Cr  0.34721864  0.98897370  0.69354905     1.93700
Cr1238     Cr  0.35007792  0.52626882  0.77930898     1.93200
Cr1239     Cr  0.30076369  0.94602832  0.75836244     1.39100
O1240       O  0.33491305  0.98747871  0.74495448    -1.22400
C1241       C  0.22922549  0.89264816  0.92476308    -0.15700
C1242       C  0.26745232  0.88356824  0.92943548    -0.30900
H1243       H  0.20928564  0.86500826  0.93065706     0.13300
H1244       H  0.28476336  0.91493128  0.93238889     0.13900
C1245       C  0.35622049  0.74139612  0.80798185    -0.15700
C1246       C  0.34091019  0.73184959  0.84365604    -0.27700
H1247       H  0.38289990  0.76056176  0.80991361     0.13300
H1248       H  0.32326457  0.70062069  0.84388548     0.13900
C1249       C  0.33986424  0.73214904  0.52143207    -0.15700
C1250       C  0.35451825  0.76047555  0.55137304    -0.30900
H1251       H  0.32866570  0.69799443  0.52903494     0.13300
H1252       H  0.36383848  0.79509995  0.54244063     0.13900
C1253       C  0.22302857  0.65142884  0.58948133    -0.15700
C1254       C  0.18484698  0.64496923  0.58493158    -0.30900
H1255       H  0.24217647  0.62254077  0.58307580     0.13300
H1256       H  0.16805505  0.67737081  0.58339411     0.13900
C1257       C  0.11180200  0.51911742  0.71330294    -0.15700
C1258       C  0.10987753  0.50257152  0.67409221    -0.30900
H1259       H  0.07517814  0.95074203  0.71511362     0.13300
H1260       H  0.10545927  0.46562752  0.66719476     0.13900
C1261       C  0.09025725  0.52614404  0.99058404    -0.15700
C1262       C  0.09544631  0.48918813  0.96627826    -0.30900
H1263       H  0.08322540  0.55753112  0.47592036     0.13300
H1264       H  0.10392489  0.95403842  0.97584400     0.13900
C1265       C  0.96482244  0.74350201  0.74133017    -0.15700
C1266       C  0.98518357  0.75462916  0.77641090    -0.30900
H1267       H  0.97960758  0.73320713  0.71450992     0.13300
H1268       H  0.97059234  0.76154785  0.80409113     0.13900
C1269       C  0.48750203  0.99168900  0.77867679    -0.15700
C1270       C  0.46597450  0.99314362  0.74276902    -0.30900
H1271       H  0.46891853  0.47977815  0.80500879     0.13300
H1272       H  0.47965367  0.99297186  0.71395807     0.13900
C1273       C  0.69120827  0.91932154  0.61858898    -0.15700
C1274       C  0.68486673  0.88227243  0.59304440    -0.30900
H1275       H  0.67157887  0.92490873  0.64193807     0.13300
H1276       H  0.70717650  0.87324097  0.57269602     0.13900
C1277       C  0.59752459  0.73565137  0.71070400    -0.15700
C1278       C  0.61817167  0.72829943  0.67790060    -0.30900
H1279       H  0.57230208  0.75822382  0.70655397     0.13300
H1280       H  0.63749762  0.69802712  0.67935268     0.13900
C1281       C  0.58955980  0.76405309  0.96414240    -0.15700
C1282       C  0.60173922  0.74077017  0.99841390    -0.30900
H1283       H  0.57712327  0.79897043  0.96748751     0.13300
H1284       H  0.63882050  0.69473604  0.48939668     0.13900
C1285       C  0.72946785  0.64565085  0.93509515    -0.15700
C1286       C  0.76747175  0.63547635  0.93892999    -0.30900
H1287       H  0.71001737  0.62234858  0.94940214     0.13300
H1288       H  0.78503415  0.66662485  0.93955758     0.13900
C1289       C  0.83139774  0.48468019  0.84368189    -0.15700
C1290       C  0.85364846  0.49263381  0.81228650    -0.30900
H1291       H  0.83099468  0.96027852  0.84882544     0.13300
H1292       H  0.87792997  0.51588738  0.81699611     0.13900
C1293       C  0.84989917  0.50387603  0.55446977    -0.15700
C1294       C  0.83451907  0.47856673  0.52290333    -0.30900
H1295       H  0.86250934  0.53749580  0.54760502     0.13300
H1296       H  0.79833527  0.95036114  0.53147857     0.13900
loop_ 
_geom_bond_atom_site_label_1 
_geom_bond_atom_site_label_2 
_geom_bond_distance 
_geom_bond_site_symmetry_2 
_ccdc_geom_bond_type 
C1            C3   1.527       .  S
C1            C5   1.541       .  S
C1            C4   1.527       .  S
C1          C314   1.536       .  S
C2            C6   1.548       .  S
C2            C8   1.531       .  S
C2            C7   1.555       .  S
C2          C317   1.545   1_545  S
C3           C11   1.368       .  A
C3            C6   1.397       .  A
C4           C15   1.365       .  A
C4            C7   1.407       .  A
C5           C19   1.389       .  A
C5            C8   1.407       .  A
C6            C9   1.386       .  A
C7           C13   1.385   1_545  A
C8          C664   1.378       .  A
C9           N10   1.353       .  A
C9           H22   1.079       .  S
N10          C11   1.340       .  A
N10         C127   1.407       .  S
C11          H12   1.082       .  S
C13          N14   1.363       .  A
C13         H671   1.082       .  S
N14          C15   1.355   1_565  A
N14         C646   1.433       .  S
C15         H345   1.083       .  S
C16         C656   1.370       .  A
C16          N17   1.339       .  A
C16          H18   1.081       .  S
N17         C667   1.342       .  A
N17          C99   1.416       .  S
C19         N665   1.336       .  A
C19          H20   1.074       .  S
H21         C339   1.083   1_554  S
H23         C661   1.082       .  S
O24         Cr42   2.067       .  S
O24          C32   1.281       .  A
O25         Cr42   1.947       .  S
O25          C26   1.250       .  A
C26          O27   1.274       .  A
C26          C93   1.467       .  S
O27         Cr43   2.055       .  S
O28         Cr43   1.995       .  S
O28          C29   1.262       .  A
C29          O30   1.265       .  A
C29         C309   1.469       .  S
O30         Cr44   2.001       .  S
O31         Cr44   1.962       .  S
O31          C32   1.253       .  A
C32         C313   1.490       .  S
O33         Cr42   1.951       .  S
O33          C41   1.251       .  A
O34         Cr42   2.059       .  S
O34          C35   1.276       .  A
C35          O36   1.262       .  A
C35         C305   1.500       .  S
O36         Cr43   1.976       .  S
O37         Cr43   2.063       .  S
O37          C38   1.278       .  A
C38          O39   1.260       .  A
C38         C108   1.472       .  S
O39         Cr44   1.934       .  S
O40         Cr44   2.055       .  S
O40          C41   1.269       .  A
C41         C118   1.477       .  S
Cr42         O45   1.750       .  S
Cr43         O45   1.777       .  S
Cr44         O45   1.771       .  S
C46          C48   1.547       .  S
C46          C50   1.536       .  S
C46          C49   1.523       .  S
C46         C302   1.536       .  S
C47          C51   1.553       .  S
C47          C53   1.523       .  S
C47          C52   1.563       .  S
C47         C306   1.546       .  S
C48          C56   1.375       .  A
C48          C51   1.400       .  A
C49          C60   1.363       .  A
C49          C52   1.408       .  A
C50          C64   1.389       .  A
C50          C53   1.399       .  A
C51          C54   1.387       .  A
C52          C58   1.389       .  A
C53          C61   1.377       .  A
C54          N55   1.358       .  A
C54          H67   1.079       .  S
N55          C56   1.344       .  A
N55         C105   1.430       .  S
C56          H57   1.081       .  S
C58          N59   1.365       .  A
C58          H68   1.082       .  S
N59          C60   1.357       .  A
N59         C634   1.441   1_554  S
C60          H66   1.083       .  S
C61          N62   1.342       .  A
C61          H63   1.081       .  S
N62          C64   1.345       .  A
N62         C121   1.423       .  S
C64          H65   1.082       .  S
O69         Cr87   2.009       .  S
O69          C77   1.274       .  A
O70         Cr87   1.950       .  S
O70          C71   1.254       .  A
C71          O72   1.267       .  A
C71         C115   1.463       .  S
O72        Cr736   2.025       .  S
O73         Cr88   1.995       .  S
O73          C74   1.262   1_565  A
C74          O75   1.263       .  A
C74         C321   1.465       .  S
O75         Cr89   1.995       .  S
O76        Cr737   1.999       .  S
O76          C77   1.266       .  A
C77         C301   1.475       .  S
O78         Cr87   1.989       .  S
O78         C734   1.260       .  A
O79         Cr87   2.032       .  S
O79          C80   1.269       .  A
C80         O729   1.261       .  A
C80         C966   1.495       .  S
O81         Cr88   1.994   1_545  S
O81         C728   1.264   1_545  A
O82         Cr88   2.050   1_545  S
O82          C83   1.276       .  A
C83          O84   1.268       .  A
C83         C130   1.467       .  S
O84         Cr89   1.962       .  S
O85         Cr89   2.063       .  S
O85          C86   1.272       .  A
C86         O726   1.250       .  A
C86          C96   1.480       .  S
Cr87         O90   1.769       .  S
Cr88        O720   2.051       .  S
Cr88        O738   1.773       .  S
Cr89        O724   1.989   1_545  S
Cr89        O738   1.785   1_545  S
O90        Cr736   1.790       .  S
O90        Cr737   1.795       .  S
O91        Cr109   2.047       .  S
O91          C99   1.286       .  A
O92        Cr757   2.030   1_545  S
O92          C93   1.271       .  A
C93          O94   1.266       .  A
O94        Cr110   1.971       .  S
O95        Cr110   2.064       .  S
O95          C96   1.274       .  A
C96         O745   1.257       .  A
O97        Cr111   1.978       .  S
O97         C744   1.248       .  A
O98        Cr111   1.910       .  S
O98          C99   1.258       .  A
O100       Cr109   2.040       .  S
O100        C108   1.256       .  A
O101       Cr109   1.997       .  S
O101        C102   1.267       .  A
C102        O103   1.263       .  A
C102        C297   1.473       .  S
O103       Cr758   1.969       .  S
O104       Cr758   2.053       .  S
O104        C105   1.285       .  A
C105        O106   1.262       .  A
O106       Cr111   1.940       .  S
O107       Cr111   1.953       .  S
O107        C108   1.242       .  A
Cr109       O740   1.970       .  S
Cr109       O112   1.767       .  S
Cr110       O751   1.999       .  S
Cr110       O752   1.996   1_545  S
Cr110       O760   1.764   1_545  S
Cr111       O112   1.761       .  S
O112       Cr758   1.766       .  S
O113       Cr131   1.978       .  S
O113        C121   1.251       .  A
O114       Cr131   2.036       .  S
O114        C115   1.273       .  A
C115        O116   1.262       .  A
O116       Cr132   1.958       .  S
O117       Cr132   2.070       .  S
O117        C118   1.273       .  A
C118        O119   1.251       .  A
O119       Cr133   1.951       .  S
O120       Cr133   1.976       .  S
O120        C121   1.255       .  A
O122       Cr131   2.081       .  S
O122        C130   1.283       .  A
O123       Cr131   1.962       .  S
O123        C124   1.261       .  A
C124        O125   1.273       .  A
C124        C293   1.465       .  S
O125       Cr132   2.013       .  S
O126       Cr132   1.973       .  S
O126        C127   1.258       .  A
C127        O128   1.260       .  A
O128       Cr133   1.969       .  S
O129       Cr133   1.936       .  S
O129        C130   1.246       .  A
Cr131       O134   1.774       .  S
Cr132       O134   1.762       .  S
Cr133       O134   1.738       .  S
C135        C137   1.541       .  S
C135        C139   1.530       .  S
C135        C138   1.541       .  S
C135        C282   1.534       .  S
C136        C140   1.531       .  S
C136        C142   1.526       .  S
C136        C141   1.566       .  S
C136        C286   1.545       .  S
C137        C145   1.374       .  A
C137        C140   1.388       .  A
C138        C149   1.365       .  A
C138        C141   1.432       .  A
C139        C153   1.394       .  A
C139        C142   1.387       .  A
C140        C143   1.380       .  A
C141        C147   1.398       .  A
C142        C798   1.368       .  A
C143        N144   1.350       .  A
C143        H156   1.082       .  S
N144        C145   1.351       .  A
N144        C239   1.421       .  S
C145        H146   1.083       .  S
C147        N148   1.363       .  A
C147        H805   1.082   1_545  S
N148        C149   1.348       .  A
N148        C613   1.439   1_554  S
C149        H155   1.083       .  S
C150        C790   1.367       .  A
C150        N151   1.333       .  A
C150        H152   1.083       .  S
N151        C801   1.346       .  A
N151        C255   1.413       .  S
C153        N799   1.343       .  A
C153        H154   1.075       .  S
H157        C795   1.082       .  S
O158       Cr176   2.059       .  S
O158        C166   1.283       .  A
O159       Cr176   1.948       .  S
O159        C160   1.250       .  A
C160        O161   1.274       .  A
C160        C249   1.471       .  S
O161       Cr177   2.053       .  S
O162       Cr177   2.001       .  S
O162        C163   1.260       .  A
C163        O164   1.257       .  A
C163        C278   1.467       .  S
O164       Cr178   1.988       .  S
O165       Cr178   1.970       .  S
O165        C166   1.258       .  A
C166        C281   1.485       .  S
O167       Cr176   1.989       .  S
O167        C175   1.257       .  A
O168       Cr176   2.065       .  S
O168        C169   1.277       .  A
C169        O170   1.259       .  A
C169        C273   1.503       .  S
O170       Cr177   1.967       .  S
O171       Cr177   2.069       .  S
O171        C172   1.282       .  A
C172        O173   1.266       .  A
C172        C264   1.477       .  S
O173       Cr178   1.940       .  S
O174       Cr178   2.035       .  S
O174        C175   1.263       .  A
C175        C230   1.476       .  S
Cr176       O179   1.759       .  S
Cr177       O179   1.776       .  S
Cr178       O179   1.777       .  S
C180        C182   1.541       .  S
C180        C184   1.550       .  S
C180        C183   1.521       .  S
C180        C270   1.535       .  S
C181        C185   1.546       .  S
C181        C187   1.519       .  S
C181        C186   1.559       .  S
C181        C274   1.537       .  S
C182        C190   1.371       .  A
C182        C185   1.402       .  A
C183        C194   1.365       .  A
C183        C186   1.404       .  A
C184        C198   1.397       .  A
C184        C187   1.400       .  A
C185        C188   1.388       .  A
C186        C192   1.389       .  A
C187        C195   1.367       .  A
C188        N189   1.352       .  A
C188        H201   1.075       .  S
N189        C190   1.344       .  A
N189        C261   1.418       .  S
C190        H191   1.082       .  S
C192        N193   1.365       .  A
C192        H202   1.082       .  S
N193        C194   1.354       .  A
N193        C601   1.435       .  S
C194        H524   1.083       .  S
C195        N196   1.334       .  A
C195        H197   1.081       .  S
N196        C198   1.349       .  A
N196        C233   1.416       .  S
C198        H199   1.076       .  S
H200        C518   1.083   1_554  S
O203       Cr221   2.041       .  S
O203        C211   1.277       .  A
O204       Cr221   1.954       .  S
O204        C205   1.250       .  A
C205        O206   1.273       .  A
C205        C227   1.469       .  S
O206       Cr870   2.047       .  S
O207       Cr222   2.003       .  S
O207        C208   1.259       .  A
C208        O209   1.262   1_565  A
C208        C290   1.481       .  S
O209       Cr223   2.002       .  S
O210       Cr871   1.983       .  S
O210        C211   1.262       .  A
C211        C269   1.483       .  S
O212       Cr221   1.984       .  S
O212        C868   1.256       .  A
O213       Cr221   2.049       .  S
O213        C214   1.272       .  A
C214        O863   1.256       .  A
C214        C933   1.469       .  S
O215       Cr222   1.960   1_545  S
O215        C862   1.259   1_545  A
O216       Cr222   2.071   1_545  S
O216        C217   1.282       .  A
C217        O218   1.267       .  A
C217        C242   1.488       .  S
O218       Cr223   1.954       .  S
O219       Cr223   2.042       .  S
O219        C220   1.265       .  A
C220        O860   1.254       .  A
C220        C252   1.473       .  S
Cr221       O224   1.757       .  S
Cr222       O854   2.038       .  S
Cr222       O872   1.775       .  S
Cr223       O858   1.982   1_545  S
Cr223       O872   1.777   1_545  S
O224       Cr870   1.775       .  S
O224       Cr871   1.774       .  S
O225       Cr243   2.018       .  S
O225        C233   1.278       .  A
O226       Cr243   1.997       .  S
O226        C227   1.261       .  A
C227        O228   1.258       .  A
O228       Cr244   1.986       .  S
O229       Cr244   2.051       .  S
O229        C230   1.263       .  A
C230        O231   1.243       .  A
O231       Cr245   1.974       .  S
O232       Cr245   1.933       .  S
O232        C233   1.264       .  A
O234       Cr243   2.055       .  S
O234        C242   1.263       .  A
O235       Cr243   1.990       .  S
O235        C236   1.266       .  A
C236        O237   1.266       .  A
C236        C294   1.467   1_455  S
O237       Cr244   1.974       .  S
O238       Cr244   2.020       .  S
O238        C239   1.277       .  A
C239        O240   1.269       .  A
O240       Cr245   1.965       .  S
O241       Cr245   1.953       .  S
O241        C242   1.242       .  A
Cr243       O246   1.777       .  S
Cr244       O246   1.775       .  S
Cr245       O246   1.764       .  S
O247       Cr265   2.036       .  S
O247        C255   1.285       .  A
O248       Cr913   1.995   1_545  S
O248        C249   1.262       .  A
C249        O250   1.265       .  A
O250       Cr266   1.998       .  S
O251       Cr266   2.052       .  S
O251        C252   1.261       .  A
C252        O901   1.240   1_545  A
O253       Cr267   1.975       .  S
O253        C900   1.240       .  A
O254       Cr267   1.924       .  S
O254        C255   1.266       .  A
O256       Cr265   2.053       .  S
O256        C264   1.257       .  A
O257       Cr265   1.983       .  S
O257        C258   1.264       .  A
C258        O907   1.265       .  A
C258        C298   1.470       .  S
O259       Cr266   1.972       .  S
O259        C906   1.264       .  A
O260       Cr914   2.031       .  S
O260        C261   1.284       .  A
C261        O262   1.268       .  A
O262       Cr267   1.950       .  S
O263       Cr267   1.950       .  S
O263        C264   1.237       .  A
Cr265       O896   1.989       .  S
Cr265       O268   1.768       .  S
Cr266       O908   2.036   1_545  S
Cr266       O916   1.763   1_545  S
Cr267       O268   1.756       .  S
O268       Cr914   1.764       .  S
C269        C270   1.339       .  D
C269        H271   1.080       .  S
C270        H272   1.082       .  S
C273        C274   1.347       .  D
C273        H275   1.079       .  S
C274        H276   1.085       .  S
C277        N517   1.434   1_554  S
C277        C278   1.343       .  D
C277        H279   1.087       .  S
C278        H280   1.086       .  S
C281        C282   1.339       .  D
C281        H283   1.081       .  S
C282        H284   1.083       .  S
C285        C862   1.477   1_545  S
C285        C286   1.370       .  D
C285        H935   1.083       .  S
C286        H288   1.085   1_545  S
H287        C933   1.084       .  S
C289        N472   1.437       .  S
C289        C290   1.342   1_545  D
C289        H615   1.089       .  S
C290        H940   1.086       .  S
H291        C613   1.089       .  S
H292        C938   1.086       .  S
C293        C294   1.340       .  D
C293        H295   1.087       .  S
C294        H296   1.087       .  S
C297        C298   1.345       .  D
C297        H947   1.087       .  S
C298        H300   1.087       .  S
H299        C945   1.087       .  S
C301        C302   1.353       .  D
C301        H303   1.069       .  S
C302        H304   1.086       .  S
C305        C306   1.347       .  D
C305        H307   1.080       .  S
C306        H308   1.084       .  S
C309        C310   1.344       .  D
C309        H311   1.087       .  S
C310        N383   1.438       .  S
C310        H636   1.087       .  S
H312        C634   1.086       .  S
C313        C314   1.343       .  D
C313        H315   1.083       .  S
C314        H316   1.081       .  S
C317        C318   1.351       .  D
C317        H967   1.084       .  S
C318        C728   1.497       .  S
C318        H320   1.079   1_565  S
H319        C965   1.085       .  S
C321        C322   1.341   1_545  D
C321        H323   1.087       .  S
C322        N338   1.435   1_564  S
C322        H972   1.086       .  S
H324        C970   1.088       .  S
C325        C327   1.535       .  S
C325        C329   1.547       .  S
C325        C328   1.525       .  S
C325        C638   1.533       .  S
C326        C330   1.545       .  S
C326        C332   1.524       .  S
C326        C331   1.551       .  S
C326        C641   1.533   1_545  S
C327        C335   1.370       .  A
C327        C330   1.401       .  A
C328        C339   1.365       .  A
C328        C331   1.403       .  A
C329        C343   1.397       .  A
C329        C332   1.402       .  A
C330        C333   1.387       .  A
C331        C337   1.384   1_545  A
C332        C988   1.370       .  A
C333        N334   1.350       .  A
C333        H346   1.075       .  S
N334        C335   1.341       .  A
N334        C451   1.409       .  S
C335        H336   1.083       .  S
C337        N338   1.361   1_565  A
C337        H995   1.082       .  S
N338        C339   1.357       .  A
C340        C980   1.380       .  A
C340        N341   1.345       .  A
C340        H342   1.082       .  S
N341        C991   1.340       .  A
N341        C423   1.425       .  S
C343        N989   1.343       .  A
C343        H344   1.075       .  S
H347        C985   1.082       .  S
O348       Cr366   2.055       .  S
O348        C356   1.280       .  A
O349       Cr366   1.942       .  S
O349        C350   1.246       .  A
C350        O351   1.273       .  A
C350        C417   1.470       .  S
O351       Cr367   2.059       .  S
O352       Cr367   2.004       .  S
O352        C353   1.266       .  A
C353        O354   1.265       .  A
C353        C633   1.469       .  S
O354       Cr368   2.000       .  S
O355       Cr368   1.962       .  S
O355        C356   1.254       .  A
C356        C637   1.484       .  S
O357       Cr366   1.950       .  S
O357        C365   1.245       .  A
O358       Cr366   2.050       .  S
O358        C359   1.276       .  A
C359        O360   1.262       .  A
C359        C629   1.500       .  S
O360       Cr367   1.979       .  S
O361       Cr367   2.048       .  S
O361        C362   1.276       .  A
C362        O363   1.265       .  A
C362        C432   1.458       .  S
O363       Cr368   1.951       .  S
O364       Cr368   2.062       .  S
O364        C365   1.269       .  A
C365        C442   1.477       .  S
Cr366       O369   1.745       .  S
Cr367       O369   1.771       .  S
Cr368       O369   1.775       .  S
C370        C372   1.507       .  S
C370        C374   1.526       .  S
C370        C373   1.540       .  S
C370        C626   1.534       .  S
C371        C375   1.554       .  S
C371        C377   1.534       .  S
C371        C376   1.568       .  S
C371        C630   1.547       .  S
C372        C380   1.368       .  A
C372        C375   1.384       .  A
C373        C384   1.367       .  A
C373        C376   1.436       .  A
C374        C388   1.376       .  A
C374        C377   1.378       .  A
C375        C378   1.396       .  A
C376        C382   1.391       .  A
C377        C385   1.376       .  A
C378        N379   1.358       .  A
C378        H391   1.078       .  S
N379        C380   1.339       .  A
N379        C429   1.413       .  S
C380        H381   1.083       .  S
C382        N383   1.360       .  A
C382        H392   1.082       .  S
N383        C384   1.352       .  A
C384        H390   1.083       .  S
C385        N386   1.355       .  A
C385        H387   1.082       .  S
N386        C388   1.347       .  A
N386        C445   1.422       .  S
C388        H389   1.083       .  S
O393       Cr411   2.022       .  S
O393        C401   1.271       .  A
O394       Cr411   1.953       .  S
O394        C395   1.253       .  A
C395        O396   1.273       .  A
C395        C439   1.468       .  S
O396      Cr1060   2.046       .  S
O397       Cr412   1.994       .  S
O397        C398   1.255       .  A
C398        O399   1.256   1_565  A
C398        C645   1.469       .  S
O399       Cr413   1.986       .  S
O400      Cr1061   1.988       .  S
O400        C401   1.257       .  A
C401        C625   1.470       .  S
O402       Cr411   1.961       .  S
O402       C1058   1.252       .  A
O403       Cr411   2.024       .  S
O403        C404   1.267       .  A
C404       O1053   1.265       .  A
C404       C1290   1.496       .  S
O405       Cr412   1.985   1_545  S
O405       C1052   1.261   1_545  A
O406       Cr412   2.043   1_545  S
O406        C407   1.276       .  A
C407        O408   1.267       .  A
C407        C454   1.471       .  S
O408       Cr413   1.967       .  S
O409       Cr413   2.020       .  S
O409        C410   1.256       .  A
C410       O1050   1.259       .  A
C410        C420   1.478       .  S
Cr411       O414   1.754       .  S
Cr412      O1044   2.021       .  S
Cr412      O1062   1.789       .  S
Cr413      O1048   2.000   1_545  S
Cr413      O1062   1.798   1_545  S
O414      Cr1060   1.774       .  S
O414      Cr1061   1.787       .  S
O415       Cr433   1.994       .  S
O415        C423   1.256       .  A
O416      Cr1081   1.981   1_545  S
O416        C417   1.259       .  A
C417        O418   1.266       .  A
O418       Cr434   2.010       .  S
O419       Cr434   2.042       .  S
O419        C420   1.259       .  A
C420       O1069   1.247   1_545  A
O421       Cr435   1.962       .  S
O421       C1068   1.255       .  A
O422       Cr435   1.964       .  S
O422        C423   1.247       .  A
O424       Cr433   2.061       .  S
O424        C432   1.279       .  A
O425       Cr433   1.972       .  S
O425        C426   1.262       .  A
C426        O427   1.269       .  A
C426        C621   1.468       .  S
O427      Cr1082   2.004       .  S
O428      Cr1082   2.001       .  S
O428        C429   1.262       .  A
C429        O430   1.254       .  A
O430       Cr435   1.954       .  S
O431       Cr435   1.941       .  S
O431        C432   1.251       .  A
Cr433      O1064   2.025       .  S
Cr433       O436   1.776       .  S
Cr434      O1075   1.965       .  S
Cr434      O1076   2.056   1_545  S
Cr434      O1084   1.769   1_545  S
Cr435       O436   1.749       .  S
O436      Cr1082   1.764       .  S
O437       Cr455   1.978       .  S
O437        C445   1.260       .  A
O438       Cr455   2.046       .  S
O438        C439   1.274       .  A
C439        O440   1.260       .  A
O440       Cr456   1.954       .  S
O441       Cr456   2.057       .  S
O441        C442   1.271       .  A
C442        O443   1.257       .  A
O443       Cr457   1.960       .  S
O444       Cr457   1.983       .  S
O444        C445   1.255       .  A
O446       Cr455   2.064       .  S
O446        C454   1.277       .  A
O447       Cr455   1.973       .  S
O447        C448   1.263       .  A
C448        O449   1.269       .  A
C448        C617   1.467       .  S
O449       Cr456   2.003       .  S
O450       Cr456   1.968       .  S
O450        C451   1.254       .  A
C451        O452   1.260       .  A
O452       Cr457   1.972       .  S
O453       Cr457   1.954       .  S
O453        C454   1.253       .  A
Cr455       O458   1.772       .  S
Cr456       O458   1.770       .  S
Cr457       O458   1.746       .  S
C459        C461   1.539       .  S
C459        C463   1.546       .  S
C459        C462   1.518       .  S
C459        C606   1.529       .  S
C460        C464   1.526       .  S
C460        C466   1.514       .  S
C460        C465   1.574       .  S
C460        C610   1.523   1_545  S
C461        C469   1.364       .  A
C461        C464   1.393       .  A
C462        C473   1.364       .  A
C462        C465   1.417       .  A
C463        C477   1.388       .  A
C463        C466   1.405       .  A
C464        C467   1.384       .  A
C465        C471   1.401       .  A
C466       C1122   1.371       .  A
C467        N468   1.357       .  A
C467        H480   1.083       .  S
N468        C469   1.343       .  A
N468        C563   1.418       .  S
C469        H470   1.081       .  S
C471        N472   1.363       .  A
C471       H1129   1.082   1_545  S
N472        C473   1.345       .  A
C473        H479   1.084       .  S
C474       C1114   1.367       .  A
C474        N475   1.332       .  A
C474        H476   1.083       .  S
N475       C1125   1.347       .  A
N475        C579   1.414       .  S
C477       N1123   1.342       .  A
C477        H478   1.078       .  S
H481       C1119   1.082       .  S
O482       Cr500   2.036       .  S
O482        C490   1.278       .  A
O483       Cr500   1.938       .  S
O483        C484   1.248       .  A
C484        O485   1.274       .  A
C484        C573   1.465       .  S
O485       Cr501   2.049       .  S
O486       Cr501   2.009       .  S
O486        C487   1.259       .  A
C487        O488   1.256       .  A
C487        C602   1.477       .  S
O488       Cr502   1.984       .  S
O489       Cr502   1.979       .  S
O489        C490   1.260       .  A
C490        C605   1.477       .  S
O491       Cr500   1.986       .  S
O491        C499   1.258       .  A
O492       Cr500   2.048       .  S
O492        C493   1.273       .  A
C493        O494   1.261       .  A
C493        C597   1.499       .  S
O494       Cr501   1.973       .  S
O495       Cr501   2.074       .  S
O495        C496   1.284       .  A
C496        O497   1.269       .  A
C496        C588   1.487       .  S
O497       Cr502   1.952       .  S
O498       Cr502   2.032       .  S
O498        C499   1.262       .  A
C499        C554   1.479       .  S
Cr500       O503   1.764       .  S
Cr501       O503   1.781       .  S
Cr502       O503   1.780       .  S
C504        C506   1.544       .  S
C504        C508   1.546       .  S
C504        C507   1.529       .  S
C504        C594   1.539       .  S
C505        C509   1.544       .  S
C505        C511   1.520       .  S
C505        C510   1.550       .  S
C505        C598   1.536       .  S
C506        C514   1.372       .  A
C506        C509   1.406       .  A
C507        C518   1.369       .  A
C507        C510   1.405       .  A
C508        C522   1.396       .  A
C508        C511   1.400       .  A
C509        C512   1.387       .  A
C510        C516   1.383       .  A
C511        C519   1.367       .  A
C512        N513   1.349       .  A
C512        H525   1.074       .  S
N513        C514   1.344       .  A
N513        C585   1.418       .  S
C514        H515   1.082       .  S
C516        N517   1.360       .  A
C516        H526   1.082       .  S
N517        C518   1.357       .  A
C519        N520   1.337       .  A
C519        H521   1.081       .  S
N520        C522   1.344       .  A
N520        C557   1.414       .  S
C522        H523   1.075       .  S
O527       Cr545   2.053       .  S
O527        C535   1.280       .  A
O528       Cr545   1.947       .  S
O528        C529   1.249       .  A
C529        O530   1.272       .  A
C529        C551   1.463       .  S
O530      Cr1194   2.045       .  S
O531       Cr546   2.014       .  S
O531        C532   1.261       .  A
C532        O533   1.259   1_565  A
C532        C614   1.483       .  S
O533       Cr547   1.995       .  S
O534      Cr1195   1.984       .  S
O534        C535   1.262       .  A
C535        C593   1.490       .  S
O536       Cr545   1.980       .  S
O536       C1192   1.254       .  A
O537       Cr545   2.053       .  S
O537        C538   1.273       .  A
C538       O1187   1.255       .  A
C538       C1257   1.469       .  S
O539       Cr546   2.014   1_545  S
O539       C1186   1.267   1_545  A
O540       Cr546   2.059   1_545  S
O540        C541   1.279       .  A
C541        O542   1.267       .  A
C541        C566   1.475       .  S
O542       Cr547   1.949       .  S
O543       Cr547   2.040       .  S
O543        C544   1.267       .  A
C544       O1184   1.257       .  A
C544        C576   1.471       .  S
Cr545       O548   1.757       .  S
Cr546      O1178   2.042       .  S
Cr546      O1196   1.777       .  S
Cr547      O1182   1.994   1_545  S
Cr547      O1196   1.777   1_545  S
O548      Cr1194   1.778       .  S
O548      Cr1195   1.773       .  S
O549       Cr567   2.047       .  S
O549        C557   1.289       .  A
O550       Cr567   1.990       .  S
O550        C551   1.261       .  A
C551        O552   1.261       .  A
O552       Cr568   1.987       .  S
O553       Cr568   2.045       .  S
O553        C554   1.259       .  A
C554        O555   1.244       .  A
O555       Cr569   1.979       .  S
O556       Cr569   1.915       .  S
O556        C557   1.263       .  A
O558       Cr567   2.054       .  S
O558        C566   1.258       .  A
O559       Cr567   2.002       .  S
O559        C560   1.269       .  A
C560        O561   1.262       .  A
C560        C618   1.472   1_455  S
O561       Cr568   1.963       .  S
O562       Cr568   2.024       .  S
O562        C563   1.285       .  A
C563        O564   1.267       .  A
O564       Cr569   1.957       .  S
O565       Cr569   1.950       .  S
O565        C566   1.235       .  A
Cr567       O570   1.762       .  S
Cr568       O570   1.760       .  S
Cr569       O570   1.762       .  S
O571       Cr589   2.033       .  S
O571        C579   1.285       .  A
O572      Cr1237   1.983   1_545  S
O572        C573   1.260       .  A
C573        O574   1.264       .  A
O574       Cr590   2.000       .  S
O575       Cr590   2.047       .  S
O575        C576   1.262       .  A
C576       O1225   1.243   1_545  A
O577       Cr591   1.980       .  S
O577       C1224   1.241       .  A
O578       Cr591   1.924       .  S
O578        C579   1.267       .  A
O580       Cr589   2.060       .  S
O580        C588   1.259       .  A
O581       Cr589   1.986       .  S
O581        C582   1.265       .  A
C582       O1231   1.265       .  A
C582        C622   1.468       .  S
O583       Cr590   1.963       .  S
O583       C1230   1.262   1_545  A
O584      Cr1238   2.025       .  S
O584        C585   1.282       .  A
C585        O586   1.270       .  A
O586       Cr591   1.952       .  S
O587       Cr591   1.958       .  S
O587        C588   1.239       .  A
Cr589      O1220   1.999       .  S
Cr589       O592   1.772       .  S
Cr590      O1232   2.037   1_545  S
Cr590      O1240   1.768   1_545  S
Cr591       O592   1.759       .  S
O592      Cr1238   1.764       .  S
C593        C594   1.343       .  D
C593        H595   1.082       .  S
C594        H596   1.081       .  S
C597        C598   1.346       .  D
C597        H599   1.080       .  S
C598        H600   1.085       .  S
C601        C602   1.346       .  D
C601        H603   1.088       .  S
C602        H604   1.086       .  S
C605        C606   1.335       .  D
C605        H607   1.083       .  S
C606        H608   1.080       .  S
C609       C1186   1.506       .  S
C609        C610   1.370       .  D
C609       H1259   1.086       .  S
C610        H612   1.086       .  S
H611       C1257   1.084       .  S
C613        C614   1.344   1_545  D
C614       H1264   1.086       .  S
H616       C1262   1.086       .  S
C617        C618   1.346       .  D
C617        H619   1.087       .  S
C618        H620   1.086       .  S
C621        C622   1.342       .  D
C621       H1271   1.087       .  S
C622        H624   1.087       .  S
H623       C1269   1.087       .  S
C625        C626   1.362       .  D
C625        H627   1.076       .  S
C626        H628   1.086       .  S
C629        C630   1.347       .  D
C629        H631   1.080       .  S
C630        H632   1.083       .  S
C633        C634   1.345       .  D
C633        H635   1.087       .  S
C637        C638   1.339       .  D
C637        H639   1.079       .  S
C638        H640   1.084       .  S
C641        C642   1.348   1_565  D
C641       H1291   1.085       .  S
C642       C1052   1.494   1_545  S
C642        H644   1.079       .  S
H643       C1289   1.084       .  S
C645        C646   1.342       .  D
C645        H647   1.086   1_565  S
C646       H1296   1.088       .  S
H648       C1294   1.086       .  S
C649        C651   1.535       .  S
C649        C653   1.546       .  S
C649        C652   1.524       .  S
C649        C962   1.533       .  S
C650        C654   1.547       .  S
C650        C656   1.523       .  S
C650        C655   1.552       .  S
C650        C965   1.534       .  S
C651        C659   1.371       .  A
C651        C654   1.402       .  A
C652        C663   1.364       .  A
C652        C655   1.403       .  A
C653        C667   1.396       .  A
C653        C656   1.402       .  A
C654        C657   1.388       .  A
C655        C661   1.385       .  A
C657        N658   1.349       .  A
C657        H670   1.076       .  S
N658        C659   1.341       .  A
N658        C775   1.411       .  S
C659        H660   1.083       .  S
C661        N662   1.362       .  A
N662        C663   1.357       .  A
N662       C1294   1.436       .  S
C663        H993   1.083       .  S
C664        N665   1.343       .  A
C664        H666   1.081   1_545  S
N665        C747   1.420   1_545  S
C667        H668   1.074       .  S
H669        C987   1.083   1_554  S
O672       Cr690   2.057       .  S
O672        C680   1.280       .  A
O673       Cr690   1.936       .  S
O673        C674   1.244       .  A
C674        O675   1.272       .  A
C674        C741   1.463       .  S
O675       Cr691   2.057       .  S
O676       Cr691   2.004       .  S
O676        C677   1.267       .  A
C677        O678   1.266       .  A
C677        C957   1.471       .  S
O678       Cr692   2.001       .  S
O679       Cr692   1.962       .  S
O679        C680   1.252       .  A
C680        C961   1.484       .  S
O681       Cr690   1.945       .  S
O681        C689   1.245       .  A
O682       Cr690   2.052       .  S
O682        C683   1.277       .  A
C683        O684   1.262       .  A
C683        C953   1.500       .  S
O684       Cr691   1.980       .  S
O685       Cr691   2.048       .  S
O685        C686   1.275       .  A
C686        O687   1.265       .  A
C686        C756   1.460       .  S
O687       Cr692   1.952       .  S
O688       Cr692   2.067       .  S
O688        C689   1.271       .  A
C689        C766   1.478       .  S
Cr690       O693   1.744       .  S
Cr691       O693   1.771       .  S
Cr692       O693   1.773       .  S
C694        C696   1.506       .  S
C694        C698   1.527       .  S
C694        C697   1.542       .  S
C694        C950   1.535       .  S
C695        C699   1.551       .  S
C695        C701   1.533       .  S
C695        C700   1.565       .  S
C695        C954   1.548       .  S
C696        C704   1.366       .  A
C696        C699   1.385       .  A
C697        C708   1.368       .  A
C697        C700   1.437       .  A
C698        C712   1.377       .  A
C698        C701   1.380       .  A
C699        C702   1.394       .  A
C700        C706   1.390       .  A
C701        C709   1.373       .  A
C702        N703   1.356       .  A
C702        H715   1.078       .  S
N703        C704   1.337       .  A
N703        C753   1.409       .  S
C704        H705   1.084       .  S
C706        N707   1.358       .  A
C706        H716   1.082       .  S
N707        C708   1.353       .  A
N707       C1282   1.438   1_554  S
C708        H714   1.083       .  S
C709        N710   1.353       .  A
C709        H711   1.082       .  S
N710        C712   1.348       .  A
N710        C769   1.421       .  S
C712        H713   1.082       .  S
O717       Cr735   2.025       .  S
O717        C725   1.272       .  A
O718       Cr735   1.952       .  S
O718        C719   1.252       .  A
C719        O720   1.274       .  A
C719        C763   1.469       .  S
O721       Cr736   1.992       .  S
O721        C722   1.257       .  A
C722        O723   1.259       .  A
C722        C969   1.469       .  S
O723       Cr737   1.990       .  S
O724        C725   1.257       .  A
C725        C949   1.474       .  S
O726       Cr735   1.960   1_545  S
O727       Cr735   2.027       .  S
O727        C728   1.268       .  A
O729       Cr736   1.980       .  S
O730       Cr736   2.039       .  S
O730        C731   1.274       .  A
C731        O732   1.266       .  A
C731        C778   1.470       .  S
O732       Cr737   1.968       .  S
O733       Cr737   2.029       .  S
O733        C734   1.259       .  A
C734        C744   1.483       .  S
Cr735       O738   1.755       .  S
O739       Cr757   1.989   1_545  S
O739        C747   1.254   1_545  A
O740        C741   1.258       .  A
C741        O742   1.267       .  A
O742       Cr758   2.010       .  S
O743       Cr758   2.046       .  S
O743        C744   1.260       .  A
O745       Cr759   1.966   1_545  S
O746       Cr759   1.960       .  S
O746        C747   1.245       .  A
O748       Cr757   2.066       .  S
O748        C756   1.281       .  A
O749       Cr757   1.968       .  S
O749        C750   1.261       .  A
C750        O751   1.268   1_565  A
C750        C945   1.464       .  S
O752        C753   1.261       .  A
C753        O754   1.253       .  A
O754       Cr759   1.950       .  S
O755       Cr759   1.939       .  S
O755        C756   1.250       .  A
Cr757       O760   1.777       .  S
Cr759       O760   1.750       .  S
O761       Cr779   1.973       .  S
O761        C769   1.259       .  A
O762       Cr779   2.047       .  S
O762        C763   1.274       .  A
C763        O764   1.261       .  A
O764       Cr780   1.957       .  S
O765       Cr780   2.057       .  S
O765        C766   1.271       .  A
C766        O767   1.257       .  A
O767       Cr781   1.960       .  S
O768       Cr781   1.985       .  S
O768        C769   1.256       .  A
O770       Cr779   2.063       .  S
O770        C778   1.277       .  A
O771       Cr779   1.966       .  S
O771        C772   1.261       .  A
C772        O773   1.268       .  A
C772        C941   1.461       .  S
O773       Cr780   2.000       .  S
O774       Cr780   1.972       .  S
O774        C775   1.255       .  A
C775        O776   1.260       .  A
O776       Cr781   1.974       .  S
O777       Cr781   1.954       .  S
O777        C778   1.252       .  A
Cr779       O782   1.773       .  S
Cr780       O782   1.770       .  S
Cr781       O782   1.745       .  S
C783        C785   1.541       .  S
C783        C787   1.534       .  S
C783        C786   1.536       .  S
C783        C930   1.530       .  S
C784        C788   1.529       .  S
C784        C790   1.525       .  S
C784        C789   1.559       .  S
C784        C934   1.539       .  S
C785        C793   1.373       .  A
C785        C788   1.385       .  A
C786        C797   1.362       .  A
C786        C789   1.433       .  A
C787        C801   1.397       .  A
C787        C790   1.388       .  A
C788        C791   1.379       .  A
C789        C795   1.393       .  A
C791        N792   1.350       .  A
C791        H804   1.082       .  S
N792        C793   1.352       .  A
N792        C887   1.421       .  S
C793        H794   1.082       .  S
C795        N796   1.360       .  A
N796        C797   1.345       .  A
N796       C1261   1.430   1_554  S
C797        H803   1.083       .  S
C798        N799   1.334       .  A
C798        H800   1.083   1_545  S
N799        C903   1.410       .  S
C801        H802   1.077       .  S
O806       Cr824   2.052       .  S
O806        C814   1.282       .  A
O807       Cr824   1.947       .  S
O807        C808   1.251       .  A
C808        O809   1.272       .  A
C808        C897   1.466       .  S
O809       Cr825   2.043       .  S
O810       Cr825   2.007       .  S
O810        C811   1.260       .  A
C811        O812   1.256       .  A
C811        C926   1.468       .  S
O812       Cr826   1.988       .  S
O813       Cr826   1.968       .  S
O813        C814   1.259       .  A
C814        C929   1.480       .  S
O815       Cr824   1.987       .  S
O815        C823   1.256       .  A
O816       Cr824   2.055       .  S
O816        C817   1.276       .  A
C817        O818   1.260       .  A
C817        C921   1.499       .  S
O818       Cr825   1.969       .  S
O819       Cr825   2.067       .  S
O819        C820   1.281       .  A
C820        O821   1.267       .  A
C820        C912   1.475       .  S
O821       Cr826   1.941       .  S
O822       Cr826   2.034       .  S
O822        C823   1.263       .  A
C823        C878   1.474       .  S
Cr824       O827   1.759       .  S
Cr825       O827   1.775       .  S
Cr826       O827   1.777       .  S
C828        C830   1.544       .  S
C828        C832   1.549       .  S
C828        C831   1.527       .  S
C828        C918   1.537       .  S
C829        C833   1.544       .  S
C829        C835   1.519       .  S
C829        C834   1.553       .  S
C829        C922   1.535       .  S
C830        C838   1.373       .  A
C830        C833   1.402       .  A
C831        C842   1.367       .  A
C831        C834   1.405       .  A
C832        C846   1.398       .  A
C832        C835   1.400       .  A
C833        C836   1.388       .  A
C834        C840   1.386       .  A
C835        C843   1.365       .  A
C836        N837   1.351       .  A
C836        H849   1.076       .  S
N837        C838   1.345       .  A
N837        C909   1.420       .  S
C838        H839   1.082       .  S
C840        N841   1.361       .  A
C840        H850   1.082       .  S
N841        C842   1.358       .  A
N841       C1249   1.440       .  S
C842       H1172   1.083       .  S
C843        N844   1.334       .  A
C843        H845   1.081       .  S
N844        C846   1.348       .  A
N844        C881   1.416       .  S
C846        H847   1.075       .  S
H848       C1166   1.083   1_554  S
O851       Cr869   2.049       .  S
O851        C859   1.279       .  A
O852       Cr869   1.953       .  S
O852        C853   1.251       .  A
C853        O854   1.271       .  A
C853        C875   1.464       .  S
O855       Cr870   1.990       .  S
O855        C856   1.256       .  A
C856        O857   1.263       .  A
C856        C938   1.472       .  S
O857       Cr871   2.003       .  S
O858        C859   1.263       .  A
C859        C917   1.486       .  S
O860       Cr869   1.983   1_545  S
O861       Cr869   2.049       .  S
O861        C862   1.272       .  A
O863       Cr870   1.948       .  S
O864       Cr870   2.074       .  S
O864        C865   1.283       .  A
C865        O866   1.267       .  A
C865        C890   1.489       .  S
O866       Cr871   1.953       .  S
O867       Cr871   2.048       .  S
O867        C868   1.268       .  A
C868        C900   1.479       .  S
Cr869       O872   1.759       .  S
O873       Cr891   2.025       .  S
O873        C881   1.281       .  A
O874       Cr891   1.992       .  S
O874        C875   1.259       .  A
C875        O876   1.258       .  A
O876       Cr892   1.982       .  S
O877       Cr892   2.045       .  S
O877        C878   1.261       .  A
C878        O879   1.243       .  A
O879       Cr893   1.976       .  S
O880       Cr893   1.926       .  S
O880        C881   1.264       .  A
O882       Cr891   2.056       .  S
O882        C890   1.261       .  A
O883       Cr891   1.994       .  S
O883        C884   1.267       .  A
C884        O885   1.264       .  A
C884        C942   1.464   1_455  S
O885       Cr892   1.964       .  S
O886       Cr892   2.021       .  S
O886        C887   1.278       .  A
C887        O888   1.270       .  A
O888       Cr893   1.962       .  S
O889       Cr893   1.955       .  S
O889        C890   1.242       .  A
Cr891       O894   1.777       .  S
Cr892       O894   1.772       .  S
Cr893       O894   1.760       .  S
O895       Cr913   2.031       .  S
O895        C903   1.284   1_565  A
O896        C897   1.260       .  A
C897        O898   1.265       .  A
O898       Cr914   1.995       .  S
O899       Cr914   2.057       .  S
O899        C900   1.263       .  A
O901       Cr915   1.973       .  S
O902       Cr915   1.922       .  S
O902        C903   1.265   1_565  A
O904       Cr913   2.054       .  S
O904        C912   1.258       .  A
O905       Cr913   1.985       .  S
O905        C906   1.264   1_565  A
C906        C946   1.465   1_545  S
O907       Cr914   1.982       .  S
O908        C909   1.284       .  A
C909        O910   1.268       .  A
O910       Cr915   1.949       .  S
O911       Cr915   1.948       .  S
O911        C912   1.236       .  A
Cr913       O916   1.770       .  S
Cr915       O916   1.758       .  S
C917        C918   1.341       .  D
C917        H919   1.080       .  S
C918        H920   1.082       .  S
C921        C922   1.344       .  D
C921        H923   1.080       .  S
C922        H924   1.085       .  S
C925       N1165   1.439   1_554  S
C925        C926   1.343       .  D
C925        H927   1.087       .  S
C926        H928   1.087       .  S
C929        C930   1.336       .  D
C929        H931   1.081       .  S
C930        H932   1.084       .  S
C933        C934   1.366       .  D
C934        H936   1.085       .  S
C937       N1120   1.430       .  S
C937        C938   1.337       .  D
C937       H1263   1.089       .  S
H939       C1261   1.089       .  S
C941        C942   1.342       .  D
C941        H943   1.087       .  S
C942        H944   1.087       .  S
C945        C946   1.341       .  D
C946        H948   1.087   1_565  S
C949        C950   1.363       .  D
C949        H951   1.076       .  S
C950        H952   1.086       .  S
C953        C954   1.347       .  D
C953        H955   1.081       .  S
C954        H956   1.083       .  S
C957        C958   1.346       .  D
C957        H959   1.086       .  S
C958       N1031   1.440       .  S
C958       H1284   1.087       .  S
H960       C1282   1.087       .  S
C961        C962   1.339       .  D
C961        H963   1.079       .  S
C962        H964   1.083       .  S
C965        C966   1.348       .  D
C966        H968   1.079       .  S
C969        C970   1.342       .  D
C969        H971   1.086       .  S
C970        N986   1.432   1_554  S
C973        C975   1.529       .  S
C973        C977   1.545       .  S
C973        C976   1.529       .  S
C973       C1286   1.537       .  S
C974        C978   1.548       .  S
C974        C980   1.533       .  S
C974        C979   1.554       .  S
C974       C1289   1.542       .  S
C975        C983   1.369       .  A
C975        C978   1.393       .  A
C976        C987   1.366       .  A
C976        C979   1.408       .  A
C977        C991   1.392       .  A
C977        C980   1.406       .  A
C978        C981   1.386       .  A
C979        C985   1.385       .  A
C981        N982   1.353       .  A
C981        H994   1.078       .  S
N982        C983   1.342       .  A
N982       C1099   1.409       .  S
C983        H984   1.082       .  S
C985        N986   1.362       .  A
N986        C987   1.355       .  A
C988        N989   1.339       .  A
C988        H990   1.080   1_545  S
N989       C1071   1.417   1_545  S
C991        H992   1.073       .  S
O996      Cr1014   2.068       .  S
O996       C1004   1.282       .  A
O997      Cr1014   1.945       .  S
O997        C998   1.251       .  A
C998        O999   1.273       .  A
C998       C1065   1.467       .  S
O999      Cr1015   2.052       .  S
O1000     Cr1015   1.994       .  S
O1000      C1001   1.262       .  A
C1001      O1002   1.264       .  A
C1001      C1281   1.466       .  S
O1002     Cr1016   1.999       .  S
O1003     Cr1016   1.965       .  S
O1003      C1004   1.255       .  A
C1004      C1285   1.490       .  S
O1005     Cr1014   1.948       .  S
O1005      C1013   1.248       .  A
O1006     Cr1014   2.060       .  S
O1006      C1007   1.276       .  A
C1007      O1008   1.261       .  A
C1007      C1277   1.503       .  S
O1008     Cr1015   1.976       .  S
O1009     Cr1015   2.061       .  S
O1009      C1010   1.278       .  A
C1010      O1011   1.262       .  A
C1010      C1080   1.473       .  S
O1011     Cr1016   1.941       .  S
O1012     Cr1016   2.057       .  S
O1012      C1013   1.267       .  A
C1013      C1090   1.474       .  S
Cr1014     O1017   1.749       .  S
Cr1015     O1017   1.776       .  S
Cr1016     O1017   1.775       .  S
C1018      C1020   1.548       .  S
C1018      C1022   1.536       .  S
C1018      C1021   1.524       .  S
C1018      C1274   1.537       .  S
C1019      C1023   1.556       .  S
C1019      C1025   1.521       .  S
C1019      C1024   1.567       .  S
C1019      C1278   1.547       .  S
C1020      C1028   1.377       .  A
C1020      C1023   1.400       .  A
C1021      C1032   1.365       .  A
C1021      C1024   1.409       .  A
C1022      C1036   1.388       .  A
C1022      C1025   1.397       .  A
C1023      C1026   1.389       .  A
C1024      C1030   1.389       .  A
C1025      C1033   1.380       .  A
C1026      N1027   1.358       .  A
C1026      H1039   1.078       .  S
N1027      C1028   1.345       .  A
N1027      C1077   1.432       .  S
C1028      H1029   1.082       .  S
C1030      N1031   1.365       .  A
C1030      H1040   1.082       .  S
N1031      C1032   1.356       .  A
C1032      H1038   1.083       .  S
C1033      N1034   1.342       .  A
C1033      H1035   1.081       .  S
N1034      C1036   1.345       .  A
N1034      C1093   1.424       .  S
C1036      H1037   1.083       .  S
O1041     Cr1059   2.005       .  S
O1041      C1049   1.275       .  A
O1042     Cr1059   1.950       .  S
O1042      C1043   1.255       .  A
C1043      O1044   1.267       .  A
C1043      C1087   1.464       .  S
O1045     Cr1060   1.993       .  S
O1045      C1046   1.261       .  A
C1046      O1047   1.262       .  A
C1046      C1293   1.464       .  S
O1047     Cr1061   1.994       .  S
O1048      C1049   1.267       .  A
C1049      C1273   1.473       .  S
O1050     Cr1059   1.991   1_545  S
O1051     Cr1059   2.021       .  S
O1051      C1052   1.267       .  A
O1053     Cr1060   1.996       .  S
O1054     Cr1060   2.047       .  S
O1054      C1055   1.276       .  A
C1055      O1056   1.268       .  A
C1055      C1102   1.466       .  S
O1056     Cr1061   1.962       .  S
O1057     Cr1061   2.062       .  S
O1057      C1058   1.271       .  A
C1058      C1068   1.480       .  S
Cr1059     O1062   1.770       .  S
O1063     Cr1081   2.044       .  S
O1063      C1071   1.285       .  A
O1064      C1065   1.269       .  A
C1065      O1066   1.267       .  A
O1066     Cr1082   1.975       .  S
O1067     Cr1082   2.068       .  S
O1067      C1068   1.275       .  A
O1069     Cr1083   1.973       .  S
O1070     Cr1083   1.913       .  S
O1070      C1071   1.259       .  A
O1072     Cr1081   2.042       .  S
O1072      C1080   1.257       .  A
O1073     Cr1081   1.993       .  S
O1073      C1074   1.267       .  A
C1074      O1075   1.262   1_565  A
C1074      C1269   1.466       .  S
O1076      C1077   1.285       .  A
C1077      O1078   1.263       .  A
O1078     Cr1083   1.944       .  S
O1079     Cr1083   1.952       .  S
O1079      C1080   1.241       .  A
Cr1081     O1084   1.767       .  S
Cr1083     O1084   1.760       .  S
O1085     Cr1103   1.975       .  S
O1085      C1093   1.252       .  A
O1086     Cr1103   2.037       .  S
O1086      C1087   1.273       .  A
C1087      O1088   1.262       .  A
O1088     Cr1104   1.957       .  S
O1089     Cr1104   2.068       .  S
O1089      C1090   1.271       .  A
C1090      O1091   1.250       .  A
O1091     Cr1105   1.948       .  S
O1092     Cr1105   1.979       .  S
O1092      C1093   1.256       .  A
O1094     Cr1103   2.078       .  S
O1094      C1102   1.282       .  A
O1095     Cr1103   1.968       .  S
O1095      C1096   1.263       .  A
C1096      O1097   1.271       .  A
C1096      C1265   1.464       .  S
O1097     Cr1104   2.006       .  S
O1098     Cr1104   1.975       .  S
O1098      C1099   1.258       .  A
C1099      O1100   1.261       .  A
O1100     Cr1105   1.969       .  S
O1101     Cr1105   1.936       .  S
O1101      C1102   1.246       .  A
Cr1103     O1106   1.773       .  S
Cr1104     O1106   1.763       .  S
Cr1105     O1106   1.737       .  S
C1107      C1109   1.541       .  S
C1107      C1111   1.536       .  S
C1107      C1110   1.536       .  S
C1107      C1254   1.531       .  S
C1108      C1112   1.529       .  S
C1108      C1114   1.525       .  S
C1108      C1113   1.558       .  S
C1108      C1258   1.539       .  S
C1109      C1117   1.373       .  A
C1109      C1112   1.385       .  A
C1110      C1121   1.363       .  A
C1110      C1113   1.432       .  A
C1111      C1125   1.399       .  A
C1111      C1114   1.389       .  A
C1112      C1115   1.379       .  A
C1113      C1119   1.392       .  A
C1115      N1116   1.351       .  A
C1115      H1128   1.082       .  S
N1116      C1117   1.352       .  A
N1116      C1211   1.420       .  S
C1117      H1118   1.083       .  S
C1119      N1120   1.359       .  A
N1120      C1121   1.345       .  A
C1121      H1127   1.083       .  S
C1122      N1123   1.342       .  A
C1122      H1124   1.082   1_545  S
N1123      C1227   1.415   1_545  S
C1125      H1126   1.076       .  S
O1130     Cr1148   2.050       .  S
O1130      C1138   1.282       .  A
O1131     Cr1148   1.946       .  S
O1131      C1132   1.249       .  A
C1132      O1133   1.274       .  A
C1132      C1221   1.469       .  S
O1133     Cr1149   2.047       .  S
O1134     Cr1149   2.010       .  S
O1134      C1135   1.260       .  A
C1135      O1136   1.254       .  A
C1135      C1250   1.468       .  S
O1136     Cr1150   1.986       .  S
O1137     Cr1150   1.970       .  S
O1137      C1138   1.261       .  A
C1138      C1253   1.480       .  S
O1139     Cr1148   1.990       .  S
O1139      C1147   1.257       .  A
O1140     Cr1148   2.058       .  S
O1140      C1141   1.276       .  A
C1141      O1142   1.260       .  A
C1141      C1245   1.501       .  S
O1142     Cr1149   1.968       .  S
O1143     Cr1149   2.068       .  S
O1143      C1144   1.283       .  A
C1144      O1145   1.266       .  A
C1144      C1236   1.471       .  S
O1145     Cr1150   1.934       .  S
O1146     Cr1150   2.027       .  S
O1146      C1147   1.260       .  A
C1147      C1202   1.473       .  S
Cr1148     O1151   1.759       .  S
Cr1149     O1151   1.775       .  S
Cr1150     O1151   1.777       .  S
C1152      C1154   1.543       .  S
C1152      C1156   1.546       .  S
C1152      C1155   1.529       .  S
C1152      C1242   1.543       .  S
C1153      C1157   1.545       .  S
C1153      C1159   1.521       .  S
C1153      C1158   1.554       .  S
C1153      C1246   1.538       .  S
C1154      C1162   1.373       .  A
C1154      C1157   1.402       .  A
C1155      C1166   1.368       .  A
C1155      C1158   1.408       .  A
C1156      C1170   1.396       .  A
C1156      C1159   1.403       .  A
C1157      C1160   1.387       .  A
C1158      C1164   1.386       .  A
C1159      C1167   1.368       .  A
C1160      N1161   1.353       .  A
C1160      H1173   1.074       .  S
N1161      C1162   1.345       .  A
N1161      C1233   1.420       .  S
C1162      H1163   1.082       .  S
C1164      N1165   1.361       .  A
C1164      H1174   1.082       .  S
N1165      C1166   1.357       .  A
C1167      N1168   1.333       .  A
C1167      H1169   1.081       .  S
N1168      C1170   1.346       .  A
N1168      C1205   1.414       .  S
C1170      H1171   1.075       .  S
O1175     Cr1193   2.045       .  S
O1175      C1183   1.276       .  A
O1176     Cr1193   1.961       .  S
O1176      C1177   1.255       .  A
C1177      O1178   1.273       .  A
C1177      C1199   1.469       .  S
O1179     Cr1194   1.988       .  S
O1179      C1180   1.256       .  A
C1180      O1181   1.265       .  A
C1180      C1262   1.473       .  S
O1181     Cr1195   2.005       .  S
O1182      C1183   1.263       .  A
C1183      C1241   1.491       .  S
O1184     Cr1193   1.983   1_545  S
O1185     Cr1193   2.039       .  S
O1185      C1186   1.271       .  A
O1187     Cr1194   1.943       .  S
O1188     Cr1194   2.076       .  S
O1188      C1189   1.283       .  A
C1189      O1190   1.267       .  A
C1189      C1214   1.492       .  S
O1190     Cr1195   1.957       .  S
O1191     Cr1195   2.053       .  S
O1191      C1192   1.268       .  A
C1192      C1224   1.481       .  S
Cr1193     O1196   1.756       .  S
O1197     Cr1215   2.017       .  S
O1197      C1205   1.278       .  A
O1198     Cr1215   1.996       .  S
O1198      C1199   1.261       .  A
C1199      O1200   1.257       .  A
O1200     Cr1216   1.987       .  S
O1201     Cr1216   2.046       .  S
O1201      C1202   1.263       .  A
C1202      O1203   1.244       .  A
O1203     Cr1217   1.973       .  S
O1204     Cr1217   1.929       .  S
O1204      C1205   1.262       .  A
O1206     Cr1215   2.061       .  S
O1206      C1214   1.265       .  A
O1207     Cr1215   1.997       .  S
O1207      C1208   1.268       .  A
C1208      O1209   1.264       .  A
C1208      C1266   1.466   1_455  S
O1209     Cr1216   1.965       .  S
O1210     Cr1216   2.017       .  S
O1210      C1211   1.276       .  A
C1211      O1212   1.268       .  A
O1212     Cr1217   1.963       .  S
O1213     Cr1217   1.954       .  S
O1213      C1214   1.243       .  A
Cr1215     O1218   1.774       .  S
Cr1216     O1218   1.776       .  S
Cr1217     O1218   1.762       .  S
O1219     Cr1237   2.043       .  S
O1219      C1227   1.286       .  A
O1220      C1221   1.262       .  A
C1221      O1222   1.263       .  A
O1222     Cr1238   1.988       .  S
O1223     Cr1238   2.056       .  S
O1223      C1224   1.262       .  A
O1225     Cr1239   1.976       .  S
O1226     Cr1239   1.923       .  S
O1226      C1227   1.262       .  A
O1228     Cr1237   2.042       .  S
O1228      C1236   1.256       .  A
O1229     Cr1237   1.994       .  S
O1229      C1230   1.267       .  A
C1230      C1270   1.467       .  S
O1231     Cr1238   1.978       .  S
O1232      C1233   1.282       .  A
C1233      O1234   1.263       .  A
O1234     Cr1239   1.947       .  S
O1235     Cr1239   1.947       .  S
O1235      C1236   1.239       .  A
Cr1237     O1240   1.767       .  S
Cr1239     O1240   1.759       .  S
C1241      C1242   1.345       .  D
C1241      H1243   1.080       .  S
C1242      H1244   1.081       .  S
C1245      C1246   1.347       .  D
C1245      H1247   1.077       .  S
C1246      H1248   1.085       .  S
C1249      C1250   1.343       .  D
C1249      H1251   1.086       .  S
C1250      H1252   1.087       .  S
C1253      C1254   1.336       .  D
C1253      H1255   1.081       .  S
C1254      H1256   1.084       .  S
C1257      C1258   1.364       .  D
C1258      H1260   1.085       .  S
C1261      C1262   1.336       .  D
C1265      C1266   1.343       .  D
C1265      H1267   1.087       .  S
C1266      H1268   1.087       .  S
C1269      C1270   1.346       .  D
C1270      H1272   1.087       .  S
C1273      C1274   1.355       .  D
C1273      H1275   1.071       .  S
C1274      H1276   1.086       .  S
C1277      C1278   1.349       .  D
C1277      H1279   1.079       .  S
C1278      H1280   1.084       .  S
C1281      C1282   1.342       .  D
C1281      H1283   1.087       .  S
C1285      C1286   1.343       .  D
C1285      H1287   1.082       .  S
C1286      H1288   1.080       .  S
C1289      C1290   1.351       .  D
C1290      H1292   1.079       .  S
C1293      C1294   1.341       .  D
C1293      H1295   1.087       .  S
