geometry optimzed in LAMMPS
_audit_creation_date              2020-12-01 
_audit_creation_method            'lammps2cif' 
_symmetry_space_group_name_H-M    'P1' 
_symmetry_Int_Tables_number       1 
_symmetry_cell_setting            triclinic 
loop_ 
_symmetry_equiv_pos_as_xyz 
  x,y,z 
_cell_length_a                    31.67067296 
_cell_length_b                    31.712309975716128 
_cell_length_c                    25.86975410949427 
_cell_angle_alpha                 89.91884964855082 
_cell_angle_beta                  89.99473916978238 
_cell_angle_gamma                 90.0475389757284 
loop_ 
_atom_site_label 
_atom_site_type_symbol 
_atom_site_fract_x 
_atom_site_fract_y 
_atom_site_fract_z 
_atom_site_charge 
N1          N  0.98956827  0.73740394  0.54347590    -0.03700
C2          C  0.99600943  0.69562524  0.53584886    -0.01100
C3          C  0.98340991  0.67337322  0.07660251    -0.24000
C4          C  0.97321937  0.70301743  0.11361118    -0.24200
C5          C  0.97661414  0.74207476  0.09009692    -0.01200
H6          H  0.98435087  0.63953099  0.08195590     0.12600
H7          H  0.96589296  0.69681391  0.15377394     0.12600
N8          N  0.01695123  0.20102551  0.10110052    -0.03700
C9          C  0.01337860  0.24312593  0.10900220    -0.01100
C10         C  0.02071322  0.26448971  0.06323282    -0.24000
C11         C  0.02974076  0.23457144  0.02630289    -0.24200
C12         C  0.02727599  0.19571247  0.05049254    -0.01200
H13         H  0.02054149  0.29832774  0.05760874     0.12600
H14         H  0.03840105  0.23960919  0.48011542     0.12600
N15         N  0.72985314  0.98553660  0.51710056    -0.03700
C16         C  0.77204972  0.98806588  0.50848490    -0.01100
C17         C  0.79149543  0.99141525  0.05098139    -0.24000
C18         C  0.76160308  0.98148782  0.08783103    -0.24200
C19         C  0.72293545  0.98193673  0.06313534    -0.01200
H20         H  0.82529201  0.99286129  0.05686621     0.12600
H21         H  0.76742111  0.97506079  0.12832142     0.12600
N22         N  0.26706604  0.96060340  0.07751951    -0.03700
C23         C  0.22648395  0.95421894  0.09166789    -0.01100
C24         C  0.20021792  0.95994607  0.04954356    -0.24000
C25         C  0.22573344  0.97060351  0.00824291    -0.24200
C26         C  0.26679228  0.97085709  0.02655032    -0.01200
H27         H  0.16606097  0.95859279  0.04944720     0.12600
H28         H  0.21807531  0.97622848  0.46594483     0.12600
N29         N  0.53899042  0.70973264  0.49881989    -0.03700
C30         C  0.52895135  0.75097113  0.49233446    -0.01100
C31         C  0.53902326  0.77403258  0.03928302    -0.24000
C32         C  0.55395785  0.74483052  0.07430660    -0.24200
C33         C  0.55325636  0.70612088  0.04974561    -0.01200
H34         H  0.53536816  0.80752926  0.04594995     0.12600
H35         H  0.56296007  0.75102962  0.11390695     0.12600
N36         N  0.47665945  0.25623464  0.06839592    -0.03700
C37         C  0.46046621  0.21805192  0.08237305    -0.01100
C38         C  0.43502401  0.20238985  0.04346383    -0.24000
C39         C  0.43571934  0.23153863  0.00406362    -0.24200
C40         C  0.46094436  0.26451528  0.02038242    -0.01200
H41         H  0.41847777  0.17251889  0.04332261     0.12600
H42         H  0.41338011  0.23206977  0.46807017     0.12600
N43         N  0.25324340  0.46578335  0.08113906    -0.03700
C44         C  0.29577953  0.46994598  0.08478339    -0.01100
C45         C  0.31447490  0.45696410  0.03910198    -0.24000
C46         C  0.28248974  0.44427834  0.00657188    -0.24200
C47         C  0.24515617  0.45022271  0.03311366    -0.01200
H48         H  0.34791390  0.45655388  0.03045881     0.12600
H49         H  0.28827118  0.42755007  0.46935215     0.12600
N50         N  0.79102263  0.47427546  0.52201044    -0.03700
C51         C  0.75010295  0.46498712  0.51264342    -0.03900
C52         C  0.72793241  0.46603939  0.06069370    -0.24000
C53         C  0.75623337  0.47672730  0.09914493    -0.24200
C54         C  0.79553824  0.47975580  0.07598635    -0.01200
H55         H  0.69414511  0.46227488  0.06510227     0.12600
H56         H  0.74887589  0.48163831  0.13952249     0.12600
Zn57       Zn  0.52186235  0.47658859  0.20507018     1.49700
Zn58       Zn  0.48697589  0.48854047  0.32213329     1.49400
Zn59       Zn  0.56218959  0.42375951  0.29549906     1.49100
Zn60       Zn  0.58220795  0.52055006  0.28297808     1.49500
O61         O  0.53760080  0.47772155  0.27737448    -1.84300
O62         O  0.45989071  0.48372649  0.19893363    -0.75000
O63         O  0.47737659  0.43948274  0.37489010    -0.74800
O64         O  0.55996575  0.38321152  0.23641253    -0.74300
O65         O  0.43259807  0.49320103  0.27723639    -0.75000
O66         O  0.53513083  0.42145704  0.17089757    -0.74600
O67         O  0.52769872  0.39564930  0.34938329    -0.75200
O68         O  0.63638337  0.49723242  0.31449424    -0.74500
O69         O  0.49759098  0.54429149  0.36112714    -0.75300
O70         O  0.61963239  0.43006260  0.32788600    -0.74700
O71         O  0.56266049  0.56129387  0.33537250    -0.75200
O72         O  0.59009664  0.55684869  0.21753852    -0.75100
O73         O  0.54450198  0.52545800  0.16536010    -0.74900
C74         C  0.42838410  0.49031576  0.22818815     0.76900
C75         C  0.49633408  0.40395019  0.37816696     0.77400
C76         C  0.54711091  0.38648932  0.19000679     0.76400
C77         C  0.64448460  0.46122709  0.33427838     0.76800
C78         C  0.53003923  0.56840923  0.36257416     0.77900
C79         C  0.56982132  0.55554312  0.17490034     0.76900
Zn80       Zn  0.54533667  0.02572124  0.28077905     1.49700
Zn81       Zn  0.44648312  0.02125630  0.28976182     1.49400
Zn82       Zn  0.49802451  0.93644295  0.24982092     1.49100
Zn83       Zn  0.49940787  0.96974121  0.36664626     1.49500
O84         O  0.49763002  0.98770574  0.29552272    -1.84300
O85         O  0.52636158  0.08366670  0.25403441    -0.75000
O86         O  0.41269216  0.99564501  0.23520571    -0.74800
O87         O  0.54835261  0.94061227  0.19851172    -0.74300
O88         O  0.45676321  0.07962502  0.26217082    -0.75000
O89         O  0.57653267  0.00254445  0.22020193    -0.74600
O90         O  0.44244760  0.93603726  0.20786372    -0.75200
O91         O  0.49804326  0.90762414  0.37142966    -0.74500
O92         O  0.40865082  0.02017131  0.35312178    -0.75300
O93         O  0.50227228  0.88050223  0.29262668    -0.74700
O94         O  0.44926484  0.98661319  0.40929353    -0.75200
O95         O  0.55421821  0.98567715  0.39777546    -0.75100
O96         O  0.58793887  0.02636188  0.34097574    -0.74900
C97         C  0.48959166  0.09899292  0.24648147     0.76900
C98         C  0.41284301  0.96344575  0.20627384     0.77400
C99         C  0.57561886  0.96994424  0.19170348     0.76400
C100        C  0.50011082  0.87595643  0.34170783     0.76800
C101        C  0.41426564  0.00375002  0.39753135     0.77900
C102        C  0.58682535  0.00618171  0.38378792     0.76900
Zn103      Zn  0.04087674  0.91382016  0.30675378     1.49700
Zn104      Zn  0.05489794  0.01094527  0.31431615     1.49400
Zn105      Zn  0.96278817  0.97493786  0.27012031     1.49100
Zn106      Zn  0.99044332  0.96852250  0.38862321     1.49500
O107        O  0.01155517  0.96717485  0.31874755    -1.84300
O108        O  0.10038527  0.92112977  0.27956341    -0.75000
O109        O  0.03473124  0.05150784  0.26278283    -0.74800
O110        O  0.95940206  0.92320956  0.22062324    -0.74300
O111        O  0.11012918  0.99023827  0.28373135    -0.75000
O112        O  0.01265518  0.88363836  0.24923669    -0.74600
O113        O  0.97343022  0.03025365  0.22931978    -0.75200
O114        O  0.92924987  0.98030978  0.39007568    -0.74500
O115        O  0.06203222  0.04579072  0.37988940    -0.75300
O116        O  0.90538759  0.98131934  0.30946901    -0.74700
O117        O  0.01497629  0.01523060  0.43103366    -0.75200
O118        O  0.99702095  0.91253993  0.42196796    -0.75100
O119        O  0.03679756  0.87487468  0.36825752    -0.74900
C120        C  0.12240676  0.95377293  0.26960337     0.76900
C121        C  0.00398925  0.05668404  0.23198456     0.77400
C122        C  0.98216277  0.88987996  0.21833460     0.76400
C123        C  0.89912968  0.98415109  0.35819068     0.76800
C124        C  0.04148386  0.04451427  0.42224432     0.77900
C125        C  0.01547443  0.87837019  0.40979362     0.76900
Zn126      Zn  0.02521111  0.46375343  0.23283281     1.49700
Zn127      Zn  0.97672762  0.52272834  0.30695623     1.49400
Zn128      Zn  0.01668769  0.43211760  0.34964117     1.49100
Zn129      Zn  0.07437729  0.51435265  0.32000526     1.49500
O130        O  0.02327232  0.48247114  0.30346213    -1.84300
O131        O  0.97841842  0.48599612  0.18822037    -0.75000
O132        O  0.93787958  0.50122029  0.35929193    -0.74800
O133        O  0.01292045  0.37615228  0.30788579    -0.74300
O134        O  0.94118785  0.52540710  0.24212366    -0.75000
O135        O  0.01677155  0.40197485  0.22826393    -0.74600
O136        O  0.96111355  0.43970698  0.38995012    -0.75200
O137        O  0.10423928  0.48530932  0.37728677    -0.74500
O138        O  0.99220084  0.57967798  0.33652317    -0.75300
O139        O  0.06729883  0.42863228  0.40063560    -0.74700
O140        O  0.06035362  0.57062318  0.35301126    -0.75200
O141        O  0.11655943  0.51548932  0.26006235    -0.75100
O142        O  0.08207244  0.47444192  0.20444381    -0.74900
C143        C  0.94549900  0.50733818  0.19853291     0.76900
C144        C  0.93407524  0.46967323  0.38903557     0.77400
C145        C  0.01250589  0.37102374  0.25889909     0.76400
C146        C  0.09906361  0.45322304  0.40600586     0.76800
C147        C  0.02620562  0.59142043  0.35847465     0.77900
C148        C  0.11520297  0.49408550  0.21832037     0.76900
C149        C  0.83535497  0.52041240  0.14357419    -0.13500
C150        C  0.83538324  0.49021000  0.10383993     0.08600
C151        C  0.87319868  0.46898024  0.09265409    -0.13500
C152        C  0.90998187  0.47757320  0.12047456    -0.13500
C153        C  0.90964256  0.50654627  0.16158645     0.08600
C154        C  0.87203998  0.52845725  0.17222787    -0.13500
H155        H  0.80667158  0.53724435  0.15317123     0.12600
H156        H  0.87416627  0.44426187  0.06399317     0.12600
H157        H  0.93803425  0.45938751  0.11182321     0.12600
H158        H  0.87048240  0.55056112  0.20402571     0.12600
C159        C  0.83646755  0.43542029  0.46174693    -0.13500
C160        C  0.82461270  0.47358257  0.48503898     0.08600
C161        C  0.84844580  0.50999519  0.47630716    -0.13500
C162        C  0.88431682  0.50819120  0.44535203    -0.13500
C163        C  0.89726545  0.46975694  0.42342911     0.08600
C164        C  0.87303389  0.43335881  0.43151203    -0.13500
H165        H  0.81823335  0.40710099  0.46867243     0.12600
H166        H  0.83960943  0.53947781  0.49436374     0.12600
H167        H  0.90241039  0.53675549  0.43912142     0.12600
H168        H  0.88205447  0.40371485  0.41399460     0.12600
C169        C  0.73395325  0.49146227  0.42375841    -0.13500
C170        C  0.73101509  0.45931136  0.46093331     0.08600
C171        C  0.70521885  0.42435548  0.45108448    -0.13500
C172        C  0.68055108  0.42278690  0.40628419    -0.13500
C173        C  0.68018025  0.45687358  0.37126164     0.08600
C174        C  0.70850330  0.49043723  0.37943387    -0.13500
H175        H  0.75615824  0.51700208  0.93294451     0.12600
H176        H  0.70264287  0.39921130  0.47930067     0.12600
H177        H  0.65913843  0.39645384  0.40144182     0.12600
H178        H  0.70895761  0.51721718  0.35343358     0.12600
C179        C  0.17778780  0.47873196  0.51011702    -0.13500
C180        C  0.20281062  0.44650065  0.00853655     0.08600
C181        C  0.19173906  0.41053371  0.97963520    -0.13500
C182        C  0.15693446  0.41035026  0.44653617    -0.13500
C183        C  0.13120459  0.44635876  0.44652810     0.08600
C184        C  0.14161625  0.48014325  0.47923340    -0.13500
H185        H  0.18346662  0.50947658  0.02978372     0.12600
H186        H  0.21254814  0.38348013  0.97888815     0.12600
H187        H  0.15010468  0.38440498  0.42069740     0.12600
H188        H  0.12268825  0.50859120  0.47902014     0.12600
C189        C  0.19230381  0.44098705  0.12999588    -0.13500
C190        C  0.22218803  0.47253809  0.12070505     0.08600
C191        C  0.21884553  0.51128745  0.14680395    -0.13500
C192        C  0.18454854  0.51881328  0.18006802    -0.13500
C193        C  0.15326917  0.48779403  0.18653214     0.08600
C194        C  0.15814469  0.44857672  0.16212768    -0.13500
H195        H  0.19484445  0.41073423  0.11089716     0.12600
H196        H  0.24173928  0.53601436  0.13988761     0.12600
H197        H  0.18165159  0.54907532  0.19906550     0.12600
H198        H  0.13519838  0.42361100  0.16762540     0.12600
C199        C  0.35238180  0.51453187  0.12180985    -0.13500
C200        C  0.32071689  0.48434768  0.13008102     0.08600
C201        C  0.31999978  0.46228343  0.17733419    -0.13500
C202        C  0.35305615  0.46743546  0.21332526    -0.13500
C203        C  0.38695518  0.49466945  0.20218522     0.08600
C204        C  0.38507507  0.51962092  0.15737548    -0.13500
H205        H  0.35368457  0.53181902  0.08569628     0.12600
H206        H  0.29621272  0.43840939  0.18423547     0.12600
H207        H  0.35413388  0.44736372  0.24719387     0.12600
H208        H  0.41087547  0.54068939  0.14777852     0.12600
C209        C  0.51071844  0.18283707  0.14443086    -0.13500
C210        C  0.46936317  0.19419231  0.13069315     0.08600
C211        C  0.43564602  0.17905347  0.16057564    -0.13500
C212        C  0.44281609  0.15131311  0.20172272    -0.13500
C213        C  0.48388949  0.13713439  0.21331974     0.08600
C214        C  0.51794599  0.15438218  0.18522853    -0.13500
H215        H  0.53719493  0.19401194  0.12167975     0.12600
H216        H  0.40350222  0.18757896  0.15084033     0.12600
H217        H  0.41573453  0.13884822  0.22229855     0.12600
H218        H  0.54990977  0.14394807  0.19262612     0.12600
C219        C  0.48422871  0.29565553  0.43784237    -0.13500
C220        C  0.47080987  0.30135413  0.98692017     0.08600
C221        C  0.45931986  0.34288712  0.00004348    -0.13500
C222        C  0.46226479  0.37883225  0.46204616    -0.13500
C223        C  0.48276647  0.37029458  0.41488318     0.08600
C224        C  0.49315247  0.32820375  0.40326736    -0.13500
H225        H  0.49266387  0.26366796  0.42752188     0.12600
H226        H  0.44369503  0.34913430  0.03650941     0.12600
H227        H  0.45383366  0.41084967  0.47208032     0.12600
H228        H  0.50848596  0.32027899  0.36710942     0.12600
C229        C  0.49129995  0.28819328  0.15325824    -0.13500
C230        C  0.50102355  0.28440404  0.10052492     0.08600
C231        C  0.53213462  0.31108859  0.07927158    -0.13500
C232        C  0.54959608  0.34369702  0.10880222    -0.13500
C233        C  0.53845005  0.34793986  0.16091888     0.08600
C234        C  0.51066227  0.31885681  0.18337895    -0.13500
H235        H  0.46672601  0.26929600  0.17075428     0.12600
H236        H  0.54156741  0.30801622  0.03926554     0.12600
H237        H  0.57073504  0.36621114  0.09075401     0.12600
H238        H  0.50081818  0.32235503  0.22330407     0.12600
C239        C  0.47840942  0.79704041  0.44564162    -0.13500
C240        C  0.51486217  0.77204092  0.44399595     0.08600
C241        C  0.54181484  0.77538745  0.40092358    -0.13500
C242        C  0.53454108  0.80639721  0.36281511    -0.13500
C243        C  0.50013404  0.83415671  0.36748710     0.08600
C244        C  0.47107242  0.82759089  0.40777299    -0.13500
H245        H  0.45874539  0.79792153  0.98367281     0.12600
H246        H  0.57051840  0.75687164  0.39931318     0.12600
H247        H  0.55787228  0.81132939  0.33285170     0.12600
H248        H  0.44451198  0.84879111  0.41258057     0.12600
C249        C  0.54090960  0.59369630  0.09813443    -0.13500
C250        C  0.57160180  0.59126032  0.13743594     0.08600
C251        C  0.59889325  0.62579614  0.14441122    -0.13500
C252        C  0.59429128  0.66238656  0.11413836    -0.13500
C253        C  0.56223972  0.66530250  0.07649441     0.08600
C254        C  0.53595536  0.63027877  0.06869039    -0.13500
H255        H  0.51872309  0.56817070  0.09205653     0.12600
H256        H  0.62263673  0.62518598  0.17450715     0.12600
H257        H  0.61497821  0.68897921  0.12126425     0.12600
H258        H  0.50982297  0.63175530  0.04190489     0.12600
C259        C  0.49493280  0.62890105  0.40839286    -0.13500
C260        C  0.53139696  0.60565392  0.39667004     0.08600
C261        C  0.57058877  0.61917062  0.41623454    -0.13500
C262        C  0.57317181  0.65440535  0.44814203    -0.13500
C263        C  0.53679773  0.67722240  0.46045297     0.08600
C264        C  0.49773659  0.66487942  0.43965845    -0.13500
H265        H  0.46453306  0.61940572  0.39322558     0.12600
H266        H  0.59924337  0.60187331  0.40775138     0.12600
H267        H  0.60208225  0.66440732  0.96459627     0.12600
H268        H  0.46934752  0.68210349  0.44944953     0.12600
C269        C  0.20907917  0.98590892  0.17718730    -0.13500
C270        C  0.21080055  0.95022994  0.14527274     0.08600
C271        C  0.19025867  0.91323250  0.16090277    -0.13500
C272        C  0.16539871  0.91287227  0.20567018    -0.13500
C273        C  0.15966926  0.94996615  0.23477320     0.08600
C274        C  0.18360096  0.98586022  0.22153268    -0.13500
H275        H  0.22454974  0.01485375  0.16547421     0.12600
H276        H  0.19115668  0.88546473  0.13660050     0.12600
H277        H  0.14755587  0.88464756  0.21457052     0.12600
H278        H  0.18003188  0.01493241  0.24298183     0.12600
C279        C  0.30473116  0.01356178  0.45642147    -0.13500
C280        C  0.30464793  0.98156478  0.99509472     0.08600
C281        C  0.34253166  0.95934922  0.00191038    -0.13500
C282        C  0.37822940  0.96952710  0.97291849    -0.13500
C283        C  0.37846292  0.00048922  0.43443712     0.08600
C284        C  0.34038303  0.02220515  0.42597142    -0.13500
H285        H  0.27573751  0.03053667  0.44883048     0.12600
H286        H  0.34443892  0.93325464  0.02876062     0.12600
H287        H  0.40654803  0.95096923  0.97858683     0.12600
H288        H  0.33783419  0.04506763  0.39499538     0.12600
C289        C  0.31647598  0.92341685  0.13538385    -0.13500
C290        C  0.30305912  0.96071463  0.11105097     0.08600
C291        C  0.32698604  0.99750769  0.11606105    -0.13500
C292        C  0.36378749  0.99728769  0.14526598    -0.13500
C293        C  0.37749563  0.96019168  0.16982173     0.08600
C294        C  0.35386934  0.92303343  0.16442963    -0.13500
H295        H  0.29830398  0.89471724  0.13116303     0.12600
H296        H  0.31708904  0.02629366  0.09708635     0.12600
H297        H  0.38142715  0.02639161  0.14928648     0.12600
H298        H  0.36352300  0.89438567  0.18391763     0.12600
C299        C  0.79429821  0.96195840  0.42094736    -0.13500
C300        C  0.79379246  0.99425722  0.45818604     0.08600
C301        C  0.82256936  0.02763204  0.45337013    -0.13500
C302        C  0.85370558  0.02693342  0.41506823    -0.13500
C303        C  0.85710545  0.99262429  0.38100872     0.08600
C304        C  0.82590971  0.96106431  0.38259279    -0.13500
H305        H  0.76878539  0.94496353  0.92069248     0.12600
H306        H  0.82323628  0.05246631  0.48205346     0.12600
H307        H  0.87781434  0.05118421  0.41536064     0.12600
H308        H  0.82850282  0.93368539  0.35783190     0.12600
C309        C  0.67602891  0.94010474  0.12253476    -0.13500
C310        C  0.68187018  0.97516985  0.08992990     0.08600
C311        C  0.64949849  0.00521108  0.08608826    -0.13500
C312        C  0.61312399  0.00153800  0.11654979    -0.13500
C313        C  0.60802297  0.96737455  0.15071119     0.08600
C314        C  0.63915547  0.93596930  0.15226428    -0.13500
H315        H  0.70059332  0.91655227  0.12609317     0.12600
H316        H  0.65335141  0.03271006  0.06165252     0.12600
H317        H  0.58979489  0.02649668  0.11534568     0.12600
H318        H  0.63632379  0.90986202  0.17906897     0.12600
C319        C  0.69294032  0.02657867  0.44901756    -0.13500
C320        C  0.69624055  0.99035691  0.48021135     0.08600
C321        C  0.66440542  0.95984689  0.47820502    -0.13500
C322        C  0.62902621  0.96591843  0.44741083    -0.13500
C323        C  0.62477731  0.00239168  0.41686589     0.08600
C324        C  0.65745259  0.03245218  0.41709648    -0.13500
H325        H  0.71720379  0.05060574  0.45041776     0.12600
H326        H  0.66672827  0.93145087  0.50127361     0.12600
H327        H  0.60504070  0.94154053  0.44713396     0.12600
H328        H  0.65516656  0.06058545  0.39354282     0.12600
C329        C  0.01542621  0.08220575  0.50079210    -0.13500
C330        C  0.04458701  0.07980794  0.45986327     0.08600
C331        C  0.07125769  0.11450869  0.45079816    -0.13500
C332        C  0.06525854  0.15115432  0.98514083    -0.13500
C333        C  0.03385904  0.15476563  0.02336346     0.08600
C334        C  0.01104308  0.11913696  0.52961726    -0.13500
H335        H  0.99380576  0.05645867  0.50847618     0.12600
H336        H  0.09381254  0.11395025  0.41935585     0.12600
H337        H  0.08673904  0.17708964  0.97782370     0.12600
H338        H  0.98570672  0.12061401  0.55739585     0.12600
C339        C  0.97325710  0.15394546  0.15488898    -0.13500
C340        C  0.01320320  0.16814412  0.13880351     0.08600
C341        C  0.04930790  0.14609475  0.15377478    -0.13500
C342        C  0.04575820  0.10986825  0.18384439    -0.13500
C343        C  0.00586107  0.09443841  0.19868434     0.08600
C344        C  0.96951839  0.11681840  0.18414879    -0.13500
H345        H  0.94511976  0.17051892  0.14268008     0.12600
H346        H  0.08016816  0.15650742  0.14094882     0.12600
H347        H  0.07433401  0.09333270  0.19465470     0.12600
H348        H  0.93852413  0.10585468  0.19572501     0.12600
C349        C  0.03830777  0.26684770  0.19647059    -0.13500
C350        C  0.00631393  0.26518499  0.15878012     0.08600
C351        C  0.97243558  0.29345779  0.16226445    -0.13500
C352        C  0.97224117  0.32510635  0.19978235    -0.13500
C353        C  0.00596628  0.32933058  0.23461648     0.08600
C354        C  0.03819539  0.29886317  0.23420377    -0.13500
H355        H  0.06532097  0.24604453  0.19368535     0.12600
H356        H  0.94789414  0.29329042  0.13313518     0.12600
H357        H  0.94750002  0.34869753  0.19864358     0.12600
H358        H  0.06512534  0.30216629  0.25964096     0.12600
C359        C  0.94187511  0.82814780  0.18341131    -0.13500
C360        C  0.97517288  0.85716065  0.17874496     0.08600
C361        C  0.00745107  0.84919860  0.14288751    -0.13500
C362        C  0.00698120  0.81263531  0.11278382    -0.13500
C363        C  0.97440214  0.78291374  0.11826763     0.08600
C364        C  0.94162445  0.79114386  0.15355383    -0.13500
H365        H  0.91747019  0.83292869  0.21209552     0.12600
H366        H  0.03416500  0.87044188  0.13993253     0.12600
H367        H  0.03323388  0.80663041  0.08706140     0.12600
H368        H  0.91641400  0.76845702  0.15887314     0.12600
C369        C  0.96519519  0.80333425  0.50403793    -0.13500
C370        C  0.99511622  0.77090474  0.50668854     0.08600
C371        C  0.03172505  0.77331344  0.47618379    -0.13500
C372        C  0.03859394  0.80819976  0.44416257    -0.13500
C373        C  0.00941241  0.84146801  0.44338877     0.08600
C374        C  0.97251495  0.83855042  0.47328607    -0.13500
H375        H  0.93348656  0.79959931  0.02051706     0.12600
H376        H  0.05544402  0.74885688  0.47824084     0.12600
H377        H  0.06703284  0.80964410  0.42101886     0.12600
H378        H  0.94897409  0.86330151  0.47240446     0.12600
C379        C  0.98321691  0.67999980  0.44172012    -0.13500
C380        C  0.00804080  0.67517806  0.48635006     0.08600
C381        C  0.04251114  0.64749600  0.48504911    -0.13500
C382        C  0.05100549  0.62361905  0.44083886    -0.13500
C383        C  0.02435827  0.62583395  0.39738335     0.08600
C384        C  0.99093461  0.65510078  0.39781876    -0.13500
H385        H  0.95632206  0.70107273  0.44197935     0.12600
H386        H  0.06207981  0.64329423  0.51902214     0.12600
H387        H  0.07652134  0.60092549  0.44231642     0.12600
H388        H  0.96953631  0.65718513  0.36526879     0.12600
N389        N  0.98793207  0.73723746  0.03978824    -0.03700
C390        C  0.99223203  0.69528519  0.03160193    -0.01100
C391        C  0.98889075  0.67392551  0.58150690    -0.24000
C392        C  0.97745859  0.70348325  0.61815018    -0.24200
C393        C  0.97836725  0.74229544  0.59379945    -0.01200
H394        H  0.99184651  0.64028483  0.58757866     0.12600
H395        H  0.97119377  0.69750705  0.65862888     0.12600
N396        N  0.01604987  0.20163563  0.59531763    -0.03700
C397        C  0.01041981  0.24369804  0.60162461    -0.01100
C398        C  0.01862449  0.26435358  0.55553683    -0.24000
C399        C  0.03016149  0.23410403  0.52014371    -0.24200
C400        C  0.02834638  0.19567048  0.54542031    -0.01200
H401        H  0.01738294  0.29802511  0.54870243     0.12600
H402        H  0.03698320  0.24056527  0.98609360     0.12600
N403        N  0.72823151  0.99165705  0.01234437    -0.03700
C404        C  0.77018683  0.99724404  0.00480654    -0.01100
C405        C  0.79372328  0.97967885  0.55383118    -0.24000
C406        C  0.76391048  0.97125930  0.59131148    -0.24200
C407        C  0.72496191  0.97509290  0.56779317    -0.01200
H408        H  0.82764133  0.97878568  0.55878855     0.12600
H409        H  0.76997871  0.96379217  0.63148333     0.12600
N410        N  0.26638444  0.96250375  0.57708704    -0.03700
C411        C  0.22548520  0.95534777  0.58938597    -0.01100
C412        C  0.20063312  0.95940518  0.54571560    -0.24000
C413        C  0.22729348  0.97004605  0.50549970    -0.24200
C414        C  0.26767865  0.97185791  0.52585156    -0.01200
H415        H  0.16656580  0.95704942  0.54382706     0.12600
H416        H  0.21535081  0.97790574  0.96941175     0.12600
N417        N  0.53869824  0.71092403  0.00052016    -0.03700
C418        C  0.53002309  0.75250102  0.99411276    -0.01100
C419        C  0.53561637  0.77261570  0.53795913    -0.24000
C420        C  0.55039867  0.74380824  0.57348664    -0.24200
C421        C  0.55202245  0.70513957  0.54875933    -0.01200
H422        H  0.53055913  0.80593811  0.54459603     0.12600
H423        H  0.55779537  0.75026307  0.61351803     0.12600
N424        N  0.47194878  0.25969659  0.56781697    -0.03700
C425        C  0.45622978  0.22132761  0.58205596    -0.01100
C426        C  0.43015542  0.20563773  0.54380910    -0.24000
C427        C  0.42998090  0.23481922  0.50450978    -0.24200
C428        C  0.45538051  0.26788943  0.52012108    -0.01200
H429        H  0.41374649  0.17568831  0.54402325     0.12600
H430        H  0.41962973  0.22893833  0.96726932     0.12600
N431        N  0.25435202  0.46109810  0.58241812    -0.03700
C432        C  0.29692334  0.46375571  0.58719815    -0.01100
C433        C  0.31609698  0.45004801  0.54213636    -0.24000
C434        C  0.28434723  0.43842585  0.50871258    -0.24200
C435        C  0.24672378  0.44578489  0.53414663    -0.01200
H436        H  0.34965852  0.44877572  0.53436323     0.12600
H437        H  0.28601075  0.43344174  0.96714434     0.12600
N438        N  0.79196177  0.47130982  0.02474947    -0.03700
C439        C  0.75075664  0.46329908  0.01523336    -0.03900
C440        C  0.72719673  0.46714749  0.55806257    -0.24000
C441        C  0.75524501  0.47856578  0.59647309    -0.24200
C442        C  0.79446353  0.48261490  0.57327417    -0.01200
H443        H  0.69355562  0.46227118  0.56252426     0.12600
H444        H  0.74784593  0.48291039  0.63693973     0.12600
Zn445      Zn  0.52106480  0.47786175  0.70776429     1.49700
Zn446      Zn  0.48657148  0.48765222  0.82582163     1.49400
Zn447      Zn  0.56288950  0.42460916  0.79618745     1.49100
Zn448      Zn  0.58087585  0.52205817  0.78575536     1.49500
O449        O  0.53710456  0.47843581  0.77993989    -1.84300
O450        O  0.45929509  0.48467131  0.70282134    -0.75000
O451        O  0.47983510  0.43837329  0.87919849    -0.74800
O452        O  0.56006282  0.38400081  0.73661275    -0.74300
O453        O  0.43148053  0.49013909  0.78143258    -0.75000
O454        O  0.53321128  0.42287721  0.67295216    -0.74600
O455        O  0.53025454  0.39577220  0.85101366    -0.75200
O456        O  0.63510132  0.49980352  0.81890541    -0.74500
O457        O  0.49562948  0.54402965  0.86468106    -0.75300
O458        O  0.62028223  0.43172290  0.82822605    -0.74700
O459        O  0.55983270  0.56255332  0.83735359    -0.75200
O460        O  0.58897723  0.55799858  0.71992765    -0.75100
O461        O  0.54382022  0.52637427  0.66741576    -0.74900
C462        C  0.42749571  0.48885667  0.73221063     0.76900
C463        C  0.49971263  0.40326983  0.88137627     0.77400
C464        C  0.54586284  0.38774126  0.69080458     0.76400
C465        C  0.64402546  0.46336972  0.83693817     0.76800
C466        C  0.52746991  0.56899226  0.86524997     0.77900
C467        C  0.56923155  0.55638767  0.67691059     0.76900
Zn468      Zn  0.54218729  0.02888596  0.78093198     1.49700
Zn469      Zn  0.44447978  0.02432768  0.79119993     1.49400
Zn470      Zn  0.49631494  0.93867952  0.75158007     1.49100
Zn471      Zn  0.49747328  0.97237725  0.86764719     1.49500
O472        O  0.49530231  0.99029751  0.79654492    -1.84300
O473        O  0.52354606  0.08634078  0.75260107    -0.75000
O474        O  0.41062807  0.99833921  0.73730075    -0.74800
O475        O  0.54855244  0.94197594  0.70223969    -0.74300
O476        O  0.45420191  0.08279286  0.76282691    -0.75000
O477        O  0.57481670  0.00496862  0.72254803    -0.74600
O478        O  0.44091681  0.93929673  0.70871391    -0.75200
O479        O  0.49670167  0.91023638  0.87386874    -0.74500
O480        O  0.40686671  0.02296118  0.85456055    -0.75300
O481        O  0.49932026  0.88269655  0.79526969    -0.74700
O482        O  0.44757242  0.98884709  0.91016632    -0.75200
O483        O  0.55197280  0.98911409  0.89778223    -0.75100
O484        O  0.58414967  0.03069879  0.84050548    -0.74900
C485        C  0.48679627  0.10184142  0.74582028     0.76900
C486        C  0.41097419  0.96645397  0.70786559     0.77400
C487        C  0.57559819  0.97159743  0.69550523     0.76400
C488        C  0.49804199  0.87834893  0.84446314     0.76800
C489        C  0.41252196  0.00586864  0.89856064     0.77900
C490        C  0.58394179  0.01017186  0.88297950     0.76900
Zn491      Zn  0.03846059  0.91742194  0.80628728     1.49700
Zn492      Zn  0.05178210  0.01464763  0.81405795     1.49400
Zn493      Zn  0.96058561  0.97805791  0.76815427     1.49100
Zn494      Zn  0.98707040  0.97016088  0.88760120     1.49500
O495        O  0.00873845  0.97041038  0.81791919    -1.84300
O496        O  0.09679998  0.92574694  0.77699743    -0.75000
O497        O  0.03164107  0.05560762  0.76263274    -0.74800
O498        O  0.95659477  0.92549870  0.71961361    -0.74300
O499        O  0.10749608  0.99465715  0.78246271    -0.75000
O500        O  0.00999768  0.88694341  0.74966755    -0.74600
O501        O  0.97197092  0.03274150  0.72648076    -0.75200
O502        O  0.92606108  0.98287797  0.88770627    -0.74500
O503        O  0.05756237  0.04853163  0.88080578    -0.75300
O504        O  0.90340095  0.98649764  0.80660338    -0.74700
O505        O  0.01114583  0.01640519  0.93159248    -0.75200
O506        O  0.99335308  0.91319676  0.91969737    -0.75100
O507        O  0.03626661  0.87771500  0.86751513    -0.74900
C508        C  0.11899284  0.95823564  0.76701787     0.76900
C509        C  0.00176796  0.05991026  0.73035402     0.77400
C510        C  0.97967814  0.89233268  0.71832663     0.76400
C511        C  0.89664592  0.98864682  0.85524137     0.76800
C512        C  0.03712985  0.04627956  0.92326359     0.77900
C513        C  0.01346162  0.87980342  0.90799922     0.76900
Zn514      Zn  0.02371342  0.46324188  0.73088539     1.49700
Zn515      Zn  0.97401664  0.51816579  0.80744791     1.49400
Zn516      Zn  0.01606798  0.42831443  0.84737478     1.49100
Zn517      Zn  0.07222900  0.51249274  0.81892976     1.49500
O518        O  0.02167802  0.47972930  0.80232011    -1.84300
O519        O  0.97764003  0.48754740  0.68627518    -0.75000
O520        O  0.93677684  0.49591355  0.86067299    -0.74800
O521        O  0.01059736  0.37340804  0.80320232    -0.74300
O522        O  0.93794044  0.52084235  0.74360347    -0.75000
O523        O  0.01272033  0.40216336  0.72495240    -0.74600
O524        O  0.96149233  0.43473341  0.89026999    -0.75200
O525        O  0.10101299  0.48430949  0.87761297    -0.74500
O526        O  0.98820365  0.57510878  0.83646839    -0.75300
O527        O  0.06732051  0.42490054  0.89797878    -0.74700
O528        O  0.05702624  0.56912254  0.85080968    -0.75200
O529        O  0.11578687  0.51292268  0.75965308    -0.75100
O530        O  0.08148856  0.47250788  0.70323589    -0.74900
C531        C  0.94349253  0.50623061  0.69837132     0.76900
C532        C  0.93415606  0.46440959  0.89059702     0.77400
C533        C  0.00827960  0.37020756  0.75398136     0.76400
C534        C  0.09727608  0.45141994  0.90530190     0.76800
C535        C  0.02212405  0.58856732  0.85696039     0.77900
C536        C  0.11480018  0.49159103  0.71777246     0.76900
C537        C  0.83385889  0.52132150  0.64284075    -0.13500
C538        C  0.83423532  0.49262660  0.60147338     0.08600
C539        C  0.87214983  0.47178172  0.58962738    -0.13500
C540        C  0.90865588  0.47919705  0.61846623    -0.13500
C541        C  0.90791001  0.50657282  0.66112182     0.08600
C542        C  0.87024055  0.52812946  0.67248477    -0.13500
H543        H  0.80509248  0.53777552  0.65304584     0.12600
H544        H  0.87337599  0.44801808  0.55982085     0.12600
H545        H  0.93675988  0.46124269  0.60933804     0.12600
H546        H  0.86841779  0.54902109  0.70547417     0.12600
C547        C  0.83706594  0.43129104  0.96514207    -0.13500
C548        C  0.82572196  0.46977788  0.98806090     0.08600
C549        C  0.85045358  0.50562656  0.97967317    -0.13500
C550        C  0.88640115  0.50308327  0.94900303    -0.13500
C551        C  0.89843358  0.46451212  0.92666387     0.08600
C552        C  0.87363076  0.42852289  0.93491324    -0.13500
H553        H  0.81827123  0.40333778  0.97205343     0.12600
H554        H  0.84217350  0.53528790  0.99768753     0.12600
H555        H  0.90501158  0.53131680  0.94278703     0.12600
H556        H  0.88199888  0.39876879  0.91718248     0.12600
C557        C  0.73518594  0.49058993  0.92621348    -0.13500
C558        C  0.73122919  0.45856284  0.96350623     0.08600
C559        C  0.70344734  0.42505659  0.95421920    -0.13500
C560        C  0.67826693  0.42463541  0.90983920    -0.13500
C561        C  0.67929656  0.45848482  0.87450008     0.08600
C562        C  0.70908102  0.49082632  0.88231033    -0.13500
H563        H  0.75353551  0.51885403  0.43087164     0.12600
H564        H  0.69979915  0.40016276  0.98259517     0.12600
H565        H  0.65553717  0.39936305  0.90548679     0.12600
H566        H  0.71051908  0.51744950  0.85612552     0.12600
C567        C  0.17541588  0.48118431  0.00855966    -0.13500
C568        C  0.20481912  0.44377447  0.50829158     0.08600
C569        C  0.19378219  0.40927403  0.47682012    -0.13500
C570        C  0.15478700  0.41006742  0.94943563    -0.13500
C571        C  0.12905187  0.44601497  0.94678033     0.08600
C572        C  0.13919114  0.48107721  0.97766797    -0.13500
H573        H  0.18597701  0.50609849  0.53299310     0.12600
H574        H  0.21441336  0.38214368  0.47439761     0.12600
H575        H  0.14807043  0.38298529  0.92536651     0.12600
H576        H  0.12011098  0.50938232  0.97578738     0.12600
C577        C  0.19232580  0.43743749  0.63031978    -0.13500
C578        C  0.22282879  0.46848456  0.62141991     0.08600
C579        C  0.21969962  0.50731821  0.64743999    -0.13500
C580        C  0.18513467  0.51536378  0.68027129    -0.13500
C581        C  0.15332503  0.48478118  0.68651099     0.08600
C582        C  0.15796191  0.44551828  0.66208399    -0.13500
H583        H  0.19458210  0.40715358  0.61123315     0.12600
H584        H  0.24299945  0.53171530  0.64082497     0.12600
H585        H  0.18248711  0.54570680  0.69912957     0.12600
H586        H  0.13462995  0.42087748  0.66725823     0.12600
C587        C  0.35205728  0.50982401  0.62446764    -0.13500
C588        C  0.32130232  0.47873074  0.63253688     0.08600
C589        C  0.32076307  0.45683679  0.67988975    -0.13500
C590        C  0.35310971  0.46335920  0.71650366    -0.13500
C591        C  0.38607400  0.49185688  0.70588964     0.08600
C592        C  0.38390952  0.51642640  0.66074389    -0.13500
H593        H  0.35326901  0.52686773  0.58816927     0.12600
H594        H  0.29768780  0.43222350  0.68650800     0.12600
H595        H  0.35449904  0.44344124  0.75048836     0.12600
H596        H  0.40905177  0.53835351  0.65142252     0.12600
C597        C  0.50715933  0.18637812  0.64393536    -0.13500
C598        C  0.46566222  0.19736269  0.63024334     0.08600
C599        C  0.43213830  0.18150765  0.65989999    -0.13500
C600        C  0.43957866  0.15354559  0.70072815    -0.13500
C601        C  0.48077579  0.13983025  0.71237247     0.08600
C602        C  0.51467584  0.15767941  0.68448359    -0.13500
H603        H  0.53352923  0.19805201  0.62136945     0.12600
H604        H  0.39989166  0.18965534  0.65020596     0.12600
H605        H  0.41260252  0.14061443  0.72107670     0.12600
H606        H  0.54675832  0.14764589  0.69194916     0.12600
C607        C  0.49051965  0.29402421  0.93939706    -0.13500
C608        C  0.46520958  0.30408404  0.48555398     0.08600
C609        C  0.45377662  0.34589294  0.49734497    -0.13500
C610        C  0.46762536  0.37655366  0.96575391    -0.13500
C611        C  0.48799169  0.36902551  0.91825356     0.08600
C612        C  0.49931078  0.32730370  0.90584296    -0.13500
H613        H  0.49940421  0.26232944  0.92833097     0.12600
H614        H  0.43825216  0.35294997  0.53364757     0.12600
H615        H  0.45878871  0.40828335  0.97659877     0.12600
H616        H  0.51486708  0.32015256  0.86958859     0.12600
C617        C  0.48775487  0.29106872  0.65277980    -0.13500
C618        C  0.49657970  0.28789758  0.59971307     0.08600
C619        C  0.52755665  0.31465527  0.57831412    -0.13500
C620        C  0.54631039  0.34625983  0.60841896    -0.13500
C621        C  0.53634872  0.34963785  0.66105007     0.08600
C622        C  0.50825106  0.32076254  0.68329577    -0.13500
H623        H  0.46315719  0.27228163  0.67041142     0.12600
H624        H  0.53614779  0.31225602  0.53794352     0.12600
H625        H  0.56748784  0.36875313  0.59044597     0.12600
H626        H  0.49909808  0.32373331  0.72353408     0.12600
C627        C  0.47879895  0.79951740  0.94983205    -0.13500
C628        C  0.51479234  0.77394829  0.94644375     0.08600
C629        C  0.54046925  0.77716055  0.90219044    -0.13500
C630        C  0.53240368  0.80835572  0.86447725    -0.13500
C631        C  0.49852628  0.83658861  0.87070430     0.08600
C632        C  0.47072086  0.83032545  0.91241557    -0.13500
H633        H  0.45736313  0.79525895  0.47854527     0.12600
H634        H  0.56885827  0.75828153  0.89919059     0.12600
H635        H  0.55482595  0.81298620  0.83342531     0.12600
H636        H  0.44459195  0.85182704  0.91850915     0.12600
C637        C  0.54518665  0.59136020  0.59525493    -0.13500
C638        C  0.57195759  0.59157743  0.63873473     0.08600
C639        C  0.59562475  0.62817519  0.64879661    -0.13500
C640        C  0.59085735  0.66420946  0.61766112    -0.13500
C641        C  0.56210675  0.66468416  0.57602826     0.08600
C642        C  0.53982049  0.62747888  0.56497569    -0.13500
H643        H  0.52601828  0.56400069  0.58640386     0.12600
H644        H  0.61631964  0.62964733  0.68204807     0.12600
H645        H  0.60860113  0.69232473  0.62738077     0.12600
H646        H  0.51608183  0.62664996  0.53506876     0.12600
C647        C  0.49260575  0.62934233  0.91230260    -0.13500
C648        C  0.52892193  0.60621233  0.89947019     0.08600
C649        C  0.56841540  0.61987577  0.91793186    -0.13500
C650        C  0.57157356  0.65526331  0.94940619    -0.13500
C651        C  0.53548593  0.67821047  0.96249283     0.08600
C652        C  0.49598441  0.66555641  0.94322302    -0.13500
H653        H  0.46193950  0.61965707  0.89816539     0.12600
H654        H  0.59696570  0.60262678  0.90878898     0.12600
H655        H  0.60336045  0.66344918  0.46433652     0.12600
H656        H  0.46778401  0.68275860  0.95384932     0.12600
C657        C  0.20726441  0.98783943  0.67451195    -0.13500
C658        C  0.20790549  0.95223563  0.64230818     0.08600
C659        C  0.18491893  0.91639984  0.65684803    -0.13500
C660        C  0.15953397  0.91696816  0.70114281    -0.13500
C661        C  0.15551172  0.95393178  0.73097942     0.08600
C662        C  0.18103126  0.98884247  0.71829168    -0.13500
H663        H  0.22444214  0.01600154  0.66353882     0.12600
H664        H  0.18472516  0.88877624  0.63227558     0.12600
H665        H  0.14030661  0.88952015  0.70937568     0.12600
H666        H  0.17863075  0.01784781  0.74010755     0.12600
C667        C  0.30302690  0.01369524  0.95760073    -0.13500
C668        C  0.30628609  0.98280158  0.49564488     0.08600
C669        C  0.34447101  0.96146831  0.50425171    -0.13500
C670        C  0.38019597  0.97060959  0.47462271    -0.13500
C671        C  0.37664983  0.00123734  0.93491027     0.08600
C672        C  0.33864228  0.02331656  0.92757657    -0.13500
H673        H  0.27416137  0.03124002  0.95136002     0.12600
H674        H  0.34651036  0.93644550  0.53254621     0.12600
H675        H  0.40862934  0.95250969  0.48149799     0.12600
H676        H  0.33622039  0.04740658  0.89802203     0.12600
C677        C  0.31558746  0.92568274  0.63545797    -0.13500
C678        C  0.30135663  0.96311254  0.61213036     0.08600
C679        C  0.32395409  0.00049676  0.61902717    -0.13500
C680        C  0.36046933  0.00065978  0.64879041    -0.13500
C681        C  0.37534268  0.96330225  0.67176627     0.08600
C682        C  0.35278479  0.92566262  0.66488096    -0.13500
H683        H  0.29840668  0.89654619  0.62979151     0.12600
H684        H  0.31338829  0.02937553  0.60083369     0.12600
H685        H  0.37717179  0.03017523  0.65408497     0.12600
H686        H  0.36324397  0.89680760  0.68324318     0.12600
C687        C  0.79109022  0.97068154  0.91706575    -0.13500
C688        C  0.79214262  0.00273772  0.95459486     0.08600
C689        C  0.82188311  0.03522254  0.94961201    -0.13500
C690        C  0.85276921  0.03350014  0.91113325    -0.13500
C691        C  0.85489491  0.99899048  0.87725022     0.08600
C692        C  0.82252123  0.96868194  0.87864883    -0.13500
H693        H  0.77299214  0.93541358  0.42464428     0.12600
H694        H  0.82346848  0.06002482  0.97828077     0.12600
H695        H  0.87774252  0.05686822  0.91134005     0.12600
H696        H  0.82406391  0.94126574  0.85381634     0.12600
C697        C  0.67349828  0.93515281  0.62379081    -0.13500
C698        C  0.68409455  0.97176456  0.59581033     0.08600
C699        C  0.65656629  0.00629274  0.59705635    -0.13500
C700        C  0.62002977  0.00498491  0.62740613    -0.13500
C701        C  0.60962922  0.96877123  0.65628121     0.08600
C702        C  0.63618479  0.93341995  0.65324037    -0.13500
H703        H  0.69445799  0.90819897  0.62345447     0.12600
H704        H  0.66427157  0.03494378  0.57622209     0.12600
H705        H  0.60039583  0.03289278  0.62962614     0.12600
H706        H  0.62938521  0.90549600  0.67590368     0.12600
C707        C  0.69057619  0.03160597  0.94454248    -0.13500
C708        C  0.69523260  0.99497640  0.97466105     0.08600
C709        C  0.66467707  0.96326510  0.97203462    -0.13500
C710        C  0.62852100  0.96907673  0.94270725    -0.13500
C711        C  0.62257143  0.00635303  0.91417856     0.08600
C712        C  0.65444769  0.03715020  0.91393670    -0.13500
H713        H  0.71403320  0.05640427  0.94633319     0.12600
H714        H  0.66824337  0.93455643  0.99427092     0.12600
H715        H  0.60517231  0.94408472  0.94222756     0.12600
H716        H  0.65087693  0.06571249  0.89142709     0.12600
C717        C  0.00988217  0.08400672  0.00153676    -0.13500
C718        C  0.04004355  0.08107073  0.96168272     0.08600
C719        C  0.06831533  0.11478307  0.95460084    -0.13500
C720        C  0.06732700  0.15133039  0.48042568    -0.13500
C721        C  0.03653976  0.15441638  0.51953987     0.08600
C722        C  0.00656762  0.12050665  0.03156414    -0.13500
H723        H  0.98699974  0.05907339  0.00758587     0.12600
H724        H  0.09169198  0.11379171  0.92409107     0.12600
H725        H  0.08748144  0.17799676  0.47155291     0.12600
H726        H  0.98094433  0.12264554  0.05895784     0.12600
C727        C  0.97166481  0.15528297  0.64930183    -0.13500
C728        C  0.01180391  0.16948012  0.63390455     0.08600
C729        C  0.04780129  0.14826586  0.65094981    -0.13500
C730        C  0.04398231  0.11283218  0.68236525    -0.13500
C731        C  0.00394913  0.09726114  0.69637124     0.08600
C732        C  0.96768922  0.11882337  0.67976732    -0.13500
H733        H  0.94362604  0.17121617  0.63555312     0.12600
H734        H  0.07882004  0.15872533  0.63878225     0.12600
H735        H  0.07248203  0.09690642  0.69474391     0.12600
H736        H  0.93656999  0.10770622  0.69059203     0.12600
C737        C  0.02729383  0.26332179  0.69392452    -0.13500
C738        C  0.00080726  0.26653845  0.65035843     0.08600
C739        C  0.97087516  0.29905384  0.64865331    -0.13500
C740        C  0.97031098  0.33021623  0.68664247    -0.13500
C741        C  0.99971299  0.32976688  0.72731145     0.08600
C742        C  0.02676264  0.29486548  0.73231914    -0.13500
H743        H  0.05112276  0.23890180  0.69574155     0.12600
H744        H  0.95023854  0.30233027  0.61552316     0.12600
H745        H  0.94922905  0.35685094  0.68174209     0.12600
H746        H  0.05014544  0.29411831  0.76280640     0.12600
C747        C  0.93910082  0.83177790  0.67969949    -0.13500
C748        C  0.97410693  0.85902367  0.67902797     0.08600
C749        C  0.00904249  0.84864458  0.64811484    -0.13500
C750        C  0.00961600  0.81145139  0.61930600    -0.13500
C751        C  0.97546516  0.78335918  0.62127545     0.08600
C752        C  0.93993363  0.79396008  0.65123793    -0.13500
H753        H  0.91238631  0.83846705  0.70444347     0.12600
H754        H  0.03685991  0.86857906  0.64812364     0.12600
H755        H  0.03754427  0.80374259  0.59712517     0.12600
H756        H  0.91330219  0.77258967  0.65340229     0.12600
C757        C  0.96265330  0.80215402  0.99892837    -0.13500
C758        C  0.99341669  0.77063707  0.00281240     0.08600
C759        C  0.03079989  0.77422176  0.97391863    -0.13500
C760        C  0.03772242  0.80968495  0.94264260    -0.13500
C761        C  0.00756236  0.84214148  0.94070317     0.08600
C762        C  0.96979168  0.83771073  0.96864222    -0.13500
H763        H  0.93649508  0.80167842  0.52668012     0.12600
H764        H  0.05505040  0.75032440  0.97690776     0.12600
H765        H  0.06686914  0.81220147  0.92101582     0.12600
H766        H  0.94549942  0.86169586  0.96682303     0.12600
C767        C  0.97605292  0.67567919  0.93984566    -0.13500
C768        C  0.00372733  0.67482146  0.98217142     0.08600
C769        C  0.04031238  0.65010280  0.97941538    -0.13500
C770        C  0.04843875  0.62532029  0.93585305    -0.13500
C771        C  0.01944810  0.62376192  0.89468496     0.08600
C772        C  0.98357082  0.64997794  0.89666869    -0.13500
H773        H  0.94737076  0.69421860  0.94157892     0.12600
H774        H  0.06183390  0.64877773  0.01192932     0.12600
H775        H  0.07584072  0.60490746  0.93625014     0.12600
H776        H  0.96027124  0.64899479  0.86605964     0.12600
loop_ 
_geom_bond_atom_site_label_1 
_geom_bond_atom_site_label_2 
_geom_bond_distance 
_geom_bond_site_symmetry_2 
_ccdc_geom_bond_type 
N1            C2   1.355       .  A
N1          C393   1.358       .  A
N1          C370   1.436       .  S
C2          C380   1.486   1_655  S
C2          C391   1.385       .  A
C3            C4   1.381       .  A
C3          C390   1.383       .  A
C3            H6   1.082       .  S
C4            C5   1.383       .  A
C4            H7   1.082       .  S
C5          N389   1.359       .  A
C5          C363   1.489       .  S
N8           C12   1.360       .  A
N8            C9   1.356       .  A
N8          C340   1.432       .  S
C9          C350   1.483       .  S
C9           C10   1.383       .  A
C10          C11   1.378       .  A
C10          H13   1.083       .  S
C11          C12   1.383       .  A
C11         H402   1.082   1_554  S
C12         C333   1.492       .  S
H14         C399   1.082       .  S
N15          C16   1.357       .  A
N15         C407   1.361       .  A
N15         C320   1.438       .  S
C16         C300   1.485       .  S
C16         C405   1.385       .  A
C17          C18   1.379       .  A
C17         C404   1.384       .  A
C17          H20   1.082       .  S
C18          C19   1.381       .  A
C18          H21   1.083       .  S
C19         N403   1.360       .  A
C19         C310   1.489       .  S
N22          C26   1.358       .  A
N22          C23   1.351       .  A
N22         C290   1.433       .  S
C23         C270   1.478       .  S
C23          C24   1.383       .  A
C24          C25   1.381       .  A
C24          H27   1.083       .  S
C25          C26   1.384       .  A
C25         H416   1.082   1_554  S
C26         C280   1.488   1_554  S
H28         C413   1.082       .  S
N29          C30   1.356       .  A
N29         C421   1.364       .  A
N29         C263   1.434       .  S
C30         C240   1.486       .  S
C30         C419   1.382       .  A
C31          C32   1.379       .  A
C31         C418   1.384   1_554  A
C31          H34   1.083       .  S
C32          C33   1.383       .  A
C32          H35   1.082       .  S
C33         N417   1.363       .  A
C33         C253   1.494       .  S
N36          C40   1.363       .  A
N36          C37   1.363       .  A
N36         C230   1.444       .  S
C37         C210   1.487       .  S
C37          C38   1.382       .  A
C38          C39   1.375       .  A
C38          H41   1.082       .  S
C39          C40   1.382       .  A
C39         H430   1.083   1_554  S
C40         C220   1.486   1_554  S
H42         C427   1.083       .  S
N43          C47   1.362       .  A
N43          C44   1.357       .  A
N43         C190   1.436       .  S
C44         C200   1.485       .  S
C44          C45   1.385       .  A
C45          C46   1.377       .  A
C45          H48   1.082       .  S
C46          C47   1.380       .  A
C46         H437   1.083   1_554  S
C47         C180   1.489       .  S
H49         C434   1.083       .  S
N50          C51   1.351       .  A
N50         C442   1.357       .  A
N50         C160   1.431       .  S
C51         C170   1.479       .  S
C51         C440   1.383       .  A
C52          C53   1.381       .  A
C52         C439   1.383       .  A
C52          H55   1.083       .  S
C53          C54   1.385       .  A
C53          H56   1.082       .  S
C54         N438   1.357       .  A
C54         C150   1.491       .  S
Zn57         O61   1.936       .  S
Zn57         O62   1.982       .  S
Zn57         O66   2.005       .  S
Zn57         O73   1.991       .  S
Zn58         O61   2.008       .  S
Zn58         O63   2.090       .  S
Zn58         O65   2.083       .  S
Zn58         O69   2.064       .  S
Zn59         O61   1.938       .  S
Zn59         O64   2.000       .  S
Zn59         O67   1.981       .  S
Zn59         O70   2.013       .  S
Zn60         O61   1.964       .  S
Zn60         O68   2.039       .  S
Zn60         O71   1.974       .  S
Zn60         O72   2.061       .  S
O62          C74   1.270       .  A
O63          C75   1.280       .  A
O64          C76   1.272       .  A
O65          C74   1.279       .  A
O66          C76   1.272       .  A
O67          C75   1.269       .  A
O68          C77   1.277       .  A
O69          C78   1.281       .  A
O70          C77   1.274       .  A
O71          C78   1.271       .  A
O72          C79   1.277       .  A
O73          C79   1.270       .  A
C74         C203   1.481       .  S
C75         C223   1.491       .  S
C76         C233   1.462       .  S
C77         C173   1.487       .  S
C78         C260   1.476       .  S
C79         C250   1.491       .  S
Zn80         O84   1.969   1_545  S
Zn80         O85   2.053       .  S
Zn80         O89   1.994       .  S
Zn80         O96   2.061       .  S
Zn81         O84   1.944   1_545  S
Zn81         O86   1.949   1_545  S
Zn81         O88   2.009       .  S
Zn81         O92   2.030       .  S
Zn82         O84   2.012       .  S
Zn82         O87   2.078       .  S
Zn82         O90   2.068       .  S
Zn82         O93   2.094       .  S
Zn83         O84   1.926       .  S
Zn83         O91   1.974       .  S
Zn83         O94   2.007       .  S
Zn83         O95   1.979       .  S
O85          C97   1.277       .  A
O86          C98   1.267       .  A
O87          C99   1.281       .  A
O88          C97   1.273       .  A
O89          C99   1.271   1_545  A
O90          C98   1.280       .  A
O91         C100   1.267       .  A
O92         C101   1.273       .  A
O93         C100   1.279       .  A
O94         C101   1.272   1_565  A
O95         C102   1.272   1_565  A
O96         C102   1.279       .  A
C97         C213   1.493       .  S
C98         C293   1.467       .  S
C99         C313   1.478       .  S
C100        C243   1.483       .  S
C101        C283   1.486       .  S
C102        C323   1.480       .  S
Zn103       O107   1.956       .  S
Zn103       O108   2.025       .  S
Zn103       O112   1.983       .  S
Zn103       O119   2.017       .  S
Zn104       O107   1.955   1_545  S
Zn104       O109   1.959       .  S
Zn104       O111   2.030   1_545  S
Zn104       O115   2.038       .  S
Zn105       O107   2.007   1_655  S
Zn105       O110   2.085       .  S
Zn105       O113   2.073   1_565  S
Zn105       O116   2.094       .  S
Zn106       O107   1.928   1_655  S
Zn106       O114   1.974       .  S
Zn106       O117   2.001   1_665  S
Zn106       O118   1.984       .  S
O108        C120   1.274       .  A
O109        C121   1.269       .  A
O110        C122   1.281       .  A
O111        C120   1.274       .  A
O112        C122   1.269   1_455  A
O113        C121   1.282   1_655  A
O114        C123   1.267       .  A
O115        C124   1.275       .  A
O116        C123   1.279       .  A
O117        C124   1.272       .  A
O118        C125   1.272   1_655  A
O119        C125   1.274       .  A
C120        C273   1.490       .  S
C121        C343   1.475       .  S
C122        C360   1.476       .  S
C123        C303   1.481       .  S
C124        C330   1.487       .  S
C125        C373   1.469       .  S
Zn126       O130   1.923       .  S
Zn126       O131   2.006   1_455  S
Zn126       O135   1.981       .  S
Zn126       O142   1.974       .  S
Zn127       O130   1.953   1_655  S
Zn127       O132   1.951       .  S
Zn127       O134   2.022       .  S
Zn127       O138   2.022       .  S
Zn128       O130   2.004       .  S
Zn128       O133   2.082       .  S
Zn128       O136   2.060   1_455  S
Zn128       O139   2.079       .  S
Zn129       O130   1.955       .  S
Zn129       O137   1.984       .  S
Zn129       O140   2.029       .  S
Zn129       O141   2.047       .  S
O131        C143   1.272       .  A
O132        C144   1.267       .  A
O133        C145   1.278       .  A
O134        C143   1.273       .  A
O135        C145   1.268       .  A
O136        C144   1.280       .  A
O137        C146   1.270       .  A
O138        C147   1.273   1_655  A
O139        C146   1.280       .  A
O140        C147   1.275       .  A
O141        C148   1.277       .  A
O142        C148   1.272       .  A
C143        C153   1.485       .  S
C144        C163   1.466       .  S
C145        C353   1.479       .  S
C146        C183   1.477       .  S
C147        C383   1.487       .  S
C148        C193   1.473       .  S
C149        C150   1.406       .  A
C149        C154   1.402       .  A
C149        H155   1.083       .  S
C150        C151   1.405       .  A
C151        C152   1.396       .  A
C151        H156   1.080       .  S
C152        C153   1.407       .  A
C152        H157   1.083       .  S
C153        C154   1.407       .  A
C154        H158   1.083       .  S
C159        C160   1.404       .  A
C159        C164   1.399       .  A
C159        H165   1.082       .  S
C160        C161   1.397       .  A
C161        C162   1.391       .  A
C161        H166   1.083       .  S
C162        C163   1.406       .  A
C162        H167   1.083       .  S
C163        C164   1.401       .  A
C164        H168   1.083       .  S
C169        C170   1.404       .  A
C169        C174   1.402       .  A
C169        H563   1.083       .  S
C170        C171   1.400       .  A
C171        C172   1.399       .  A
C171        H176   1.083       .  S
C172        C173   1.410       .  A
C172        H177   1.083       .  S
C173        C174   1.408       .  A
C174        H178   1.083       .  S
H175        C557   1.083       .  S
C179        C184   1.397       .  A
C179        C568   1.402       .  A
C179        H573   1.082       .  S
C180        C181   1.409   1_554  A
C180        C567   1.401       .  A
C181        C570   1.407       .  A
C181        H186   1.082       .  S
C182        C183   1.403       .  A
C182        C569   1.406       .  A
C182        H187   1.083       .  S
C183        C184   1.405       .  A
C184        H188   1.084       .  S
H185        C567   1.083       .  S
C189        C190   1.397       .  A
C189        C194   1.386       .  A
C189        H195   1.083       .  S
C190        C191   1.407       .  A
C191        C192   1.406       .  A
C191        H196   1.082       .  S
C192        C193   1.405       .  A
C192        H197   1.083       .  S
C193        C194   1.404       .  A
C194        H198   1.083       .  S
C199        C200   1.402       .  A
C199        C204   1.395       .  A
C199        H205   1.083       .  S
C200        C201   1.408       .  A
C201        C202   1.411       .  A
C201        H206   1.082       .  S
C202        C203   1.407       .  A
C202        H207   1.083       .  S
C203        C204   1.404       .  A
C204        H208   1.084       .  S
C209        C210   1.404       .  A
C209        C214   1.407       .  A
C209        H215   1.083       .  S
C210        C211   1.402       .  A
C211        C212   1.399       .  A
C211        H216   1.083       .  S
C212        C213   1.409       .  A
C212        H217   1.084       .  S
C213        C214   1.410       .  A
C214        H218   1.082       .  S
C219        C224   1.394       .  A
C219        C608   1.400       .  A
C219        H225   1.083       .  S
C220        C221   1.409   1_556  A
C220        C607   1.399       .  A
C221        C610   1.412   1_554  A
C221        H226   1.084       .  S
C222        C223   1.409       .  A
C222        C609   1.412       .  A
C222        H227   1.082       .  S
C223        C224   1.408       .  A
C224        H228   1.084       .  S
C229        C230   1.404       .  A
C229        C234   1.389       .  A
C229        H235   1.081       .  S
C230        C231   1.409       .  A
C231        C232   1.400       .  A
C231        H236   1.082       .  S
C232        C233   1.400       .  A
C232        H237   1.084       .  S
C233        C234   1.400       .  A
C234        H238   1.085       .  S
C239        C240   1.402       .  A
C239        C244   1.396       .  A
C239        H633   1.082       .  S
C240        C241   1.407       .  A
C241        C242   1.411       .  A
C241        H246   1.083       .  S
C242        C243   1.407       .  A
C242        H247   1.082       .  S
C243        C244   1.406       .  A
C244        H248   1.085       .  S
H245        C627   1.083       .  S
C249        C250   1.409       .  A
C249        C254   1.396       .  A
C249        H255   1.083       .  S
C250        C251   1.406       .  A
C251        C252   1.407       .  A
C251        H256   1.083       .  S
C252        C253   1.410       .  A
C252        H257   1.083       .  S
C253        C254   1.402       .  A
C254        H258   1.080       .  S
C259        C260   1.404       .  A
C259        C264   1.402       .  A
C259        H265   1.082       .  S
C260        C261   1.407       .  A
C261        C262   1.392       .  A
C261        H266   1.083       .  S
C262        C263   1.398       .  A
C262        H655   1.083       .  S
C263        C264   1.405       .  A
C264        H268   1.083       .  S
H267        C650   1.083       .  S
C269        C270   1.403       .  A
C269        C274   1.403       .  A
C269        H275   1.083   1_565  S
C270        C271   1.400       .  A
C271        C272   1.400       .  A
C271        H276   1.083       .  S
C272        C273   1.409       .  A
C272        H277   1.083       .  S
C273        C274   1.409       .  A
C274        H278   1.083   1_565  S
C279        C284   1.403       .  A
C279        C668   1.407   1_545  A
C279        H285   1.083       .  S
C280        C281   1.403   1_556  A
C280        C667   1.407   1_565  A
C281        C282   1.394   1_554  A
C281        H286   1.081       .  S
C282        C671   1.406   1_565  A
C282        H287   1.083       .  S
C283        C284   1.406       .  A
C283        C670   1.407   1_545  A
C284        H288   1.083       .  S
C289        C290   1.405       .  A
C289        C294   1.403       .  A
C289        H295   1.082       .  S
C290        C291   1.397       .  A
C291        C292   1.389       .  A
C291        H296   1.082   1_565  S
C292        C293   1.405       .  A
C292        H297   1.084   1_565  S
C293        C294   1.402       .  A
C294        H298   1.083       .  S
C299        C300   1.407       .  A
C299        C304   1.410       .  A
C299        H693   1.083       .  S
C300        C301   1.402   1_565  A
C301        C302   1.398       .  A
C301        H306   1.083       .  S
C302        C303   1.405   1_545  A
C302        H307   1.083       .  S
C303        C304   1.406       .  A
C304        H308   1.083       .  S
H305        C687   1.082       .  S
C309        C310   1.407       .  A
C309        C314   1.404       .  A
C309        H315   1.083       .  S
C310        C311   1.404   1_565  A
C311        C312   1.400       .  A
C311        H316   1.083       .  S
C312        C313   1.406   1_545  A
C312        H317   1.084       .  S
C313        C314   1.403       .  A
C314        H318   1.083       .  S
C319        C320   1.407   1_545  A
C319        C324   1.407       .  A
C319        H325   1.082       .  S
C320        C321   1.398       .  A
C321        C322   1.388       .  A
C321        H326   1.082       .  S
C322        C323   1.406   1_565  A
C322        H327   1.083       .  S
C323        C324   1.406       .  A
C324        H328   1.082       .  S
C329        C330   1.407       .  A
C329        C334   1.396       .  A
C329        H335   1.083   1_455  S
C330        C331   1.406       .  A
C331        C720   1.403       .  A
C331        H336   1.083       .  S
C332        C333   1.407   1_556  A
C332        C719   1.402       .  A
C332        H337   1.083       .  S
C333        C722   1.404       .  A
C334        C721   1.403       .  A
C334        H338   1.078   1_455  S
C339        C340   1.405   1_655  A
C339        C344   1.404       .  A
C339        H345   1.082       .  S
C340        C341   1.395       .  A
C341        C342   1.391       .  A
C341        H346   1.083       .  S
C342        C343   1.408       .  A
C342        H347   1.083       .  S
C343        C344   1.404   1_455  A
C344        H348   1.083       .  S
C349        C350   1.407       .  A
C349        C354   1.409       .  A
C349        H355   1.083       .  S
C350        C351   1.402   1_455  A
C351        C352   1.397       .  A
C351        H356   1.083       .  S
C352        C353   1.404   1_655  A
C352        H357   1.084       .  S
C353        C354   1.406       .  A
C354        H358   1.082       .  S
C359        C360   1.404       .  A
C359        C364   1.406       .  A
C359        H365   1.082       .  S
C360        C361   1.404   1_655  A
C361        C362   1.398       .  A
C361        H366   1.084       .  S
C362        C363   1.404   1_455  A
C362        H367   1.082       .  S
C363        C364   1.407       .  A
C364        H368   1.083       .  S
C369        C370   1.401       .  A
C369        C374   1.390       .  A
C369        H763   1.082       .  S
C370        C371   1.404   1_655  A
C371        C372   1.398       .  A
C371        H376   1.081       .  S
C372        C373   1.403       .  A
C372        H377   1.082       .  S
C373        C374   1.404   1_455  A
C374        H378   1.083       .  S
H375        C757   1.082   1_554  S
C379        C380   1.405   1_655  A
C379        C384   1.406       .  A
C379        H385   1.083       .  S
C380        C381   1.402       .  A
C381        C382   1.399       .  A
C381        H386   1.084       .  S
C382        C383   1.407       .  A
C382        H387   1.083       .  S
C383        C384   1.408   1_455  A
C384        H388   1.083       .  S
N389        C390   1.354       .  A
N389        C758   1.437       .  S
C390        C768   1.480   1_654  S
C391        C392   1.383       .  A
C391        H394   1.082       .  S
C392        C393   1.382       .  A
C392        H395   1.082       .  S
C393        C751   1.487       .  S
N396        C400   1.362       .  A
N396        C397   1.356       .  A
N396        C728   1.432       .  S
C397        C738   1.486       .  S
C397        C398   1.384       .  A
C398        C399   1.377       .  A
C398        H401   1.083       .  S
C399        C400   1.383       .  A
C400        C721   1.493       .  S
N403        C404   1.354       .  A
N403        C708   1.433   1_554  S
C404        C688   1.483   1_564  S
C405        C406   1.379       .  A
C405        H408   1.082       .  S
C406        C407   1.381       .  A
C406        H409   1.083       .  S
C407        C698   1.487       .  S
N410        C414   1.358       .  A
N410        C411   1.353       .  A
N410        C678   1.431       .  S
C411        C658   1.481       .  S
C411        C412   1.383       .  A
C412        C413   1.381       .  A
C412        H415   1.083       .  S
C413        C414   1.384       .  A
C414        C668   1.491       .  S
N417        C418   1.357   1_554  A
N417        C651   1.434   1_554  S
C418        C628   1.488       .  S
C419        C420   1.377       .  A
C419        H422   1.083       .  S
C420        C421   1.385       .  A
C420        H423   1.082       .  S
C421        C641   1.498       .  S
N424        C428   1.366       .  A
N424        C425   1.364       .  A
N424        C618   1.446       .  S
C425        C598   1.489       .  S
C425        C426   1.382       .  A
C426        C427   1.374       .  A
C426        H429   1.082       .  S
C427        C428   1.382       .  A
C428        C608   1.487       .  S
N431        C435   1.362       .  A
N431        C432   1.356       .  A
N431        C578   1.439       .  S
C432        C588   1.483       .  S
C432        C433   1.385       .  A
C433        C434   1.377       .  A
C433        H436   1.083       .  S
C434        C435   1.381       .  A
C435        C568   1.488       .  S
N438        C439   1.352       .  A
N438        C548   1.431   1_554  S
C439        C558   1.482   1_554  S
C440        C441   1.381       .  A
C440        H443   1.083       .  S
C441        C442   1.385       .  A
C441        H444   1.082       .  S
C442        C538   1.490       .  S
Zn445       O449   1.935       .  S
Zn445       O450   1.972       .  S
Zn445       O454   2.001       .  S
Zn445       O461   1.992       .  S
Zn446       O449   2.014       .  S
Zn446       O451   2.095       .  S
Zn446       O453   2.090       .  S
Zn446       O457   2.072       .  S
Zn447       O449   1.938       .  S
Zn447       O452   2.012       .  S
Zn447       O455   1.978       .  S
Zn447       O458   2.010       .  S
Zn448       O449   1.964       .  S
Zn448       O456   2.045       .  S
Zn448       O459   1.970       .  S
Zn448       O460   2.064       .  S
O450        C462   1.269       .  A
O451        C463   1.281       .  A
O452        C464   1.273       .  A
O453        C462   1.280       .  A
O454        C464   1.271       .  A
O455        C463   1.269       .  A
O456        C465   1.277       .  A
O457        C466   1.282       .  A
O458        C465   1.274       .  A
O459        C466   1.270       .  A
O460        C467   1.278       .  A
O461        C467   1.270       .  A
C462        C591   1.481       .  S
C463        C611   1.491       .  S
C464        C621   1.465       .  S
C465        C561   1.489       .  S
C466        C648   1.477       .  S
C467        C638   1.492       .  S
Zn468       O472   1.965   1_545  S
Zn468       O473   2.050       .  S
Zn468       O477   1.982       .  S
Zn468       O484   2.036       .  S
Zn469       O472   1.943   1_545  S
Zn469       O474   1.943   1_545  S
Zn469       O476   2.017       .  S
Zn469       O480   2.027       .  S
Zn470       O472   2.010       .  S
Zn470       O475   2.092       .  S
Zn470       O478   2.076       .  S
Zn470       O481   2.105       .  S
Zn471       O472   1.926       .  S
Zn471       O479   1.977       .  S
Zn471       O482   1.996       .  S
Zn471       O483   1.967       .  S
O473        C485   1.276       .  A
O474        C486   1.267       .  A
O475        C487   1.282       .  A
O476        C485   1.274       .  A
O477        C487   1.270   1_545  A
O478        C486   1.282       .  A
O479        C488   1.267       .  A
O480        C489   1.273       .  A
O481        C488   1.281       .  A
O482        C489   1.271   1_565  A
O483        C490   1.271   1_565  A
O484        C490   1.276       .  A
C485        C601   1.495       .  S
C486        C681   1.468       .  S
C487        C701   1.483       .  S
C488        C631   1.487       .  S
C489        C671   1.482       .  S
C490        C711   1.471       .  S
Zn491       O495   1.950       .  S
Zn491       O496   2.014       .  S
Zn491       O500   1.974       .  S
Zn491       O507   2.023       .  S
Zn492       O495   1.958   1_545  S
Zn492       O497   1.965       .  S
Zn492       O499   2.046   1_545  S
Zn492       O503   2.043       .  S
Zn493       O495   2.010   1_655  S
Zn493       O498   2.092       .  S
Zn493       O501   2.072   1_565  S
Zn493       O504   2.084       .  S
Zn494       O495   1.929   1_655  S
Zn494       O502   1.974       .  S
Zn494       O505   2.008   1_665  S
Zn494       O506   1.997       .  S
O496        C508   1.273       .  A
O497        C509   1.269       .  A
O498        C510   1.282       .  A
O499        C508   1.276       .  A
O500        C510   1.268   1_455  A
O501        C509   1.281   1_655  A
O502        C511   1.268       .  A
O503        C512   1.277       .  A
O504        C511   1.278       .  A
O505        C512   1.273       .  A
O506        C513   1.273   1_655  A
O507        C513   1.274       .  A
C508        C661   1.492       .  S
C509        C731   1.476       .  S
C510        C748   1.478       .  S
C511        C691   1.477       .  S
C512        C718   1.489       .  S
C513        C761   1.474       .  S
Zn514       O518   1.922       .  S
Zn514       O519   2.014   1_455  S
Zn514       O523   1.974       .  S
Zn514       O530   1.986       .  S
Zn515       O518   1.946   1_655  S
Zn515       O520   1.944       .  S
Zn515       O522   2.010       .  S
Zn515       O526   2.007       .  S
Zn516       O518   2.011       .  S
Zn516       O521   2.091       .  S
Zn516       O524   2.064   1_455  S
Zn516       O527   2.088       .  S
Zn517       O518   1.956       .  S
Zn517       O525   1.983       .  S
Zn517       O528   2.035       .  S
Zn517       O529   2.063       .  S
O519        C531   1.273       .  A
O520        C532   1.266       .  A
O521        C533   1.280       .  A
O522        C531   1.271       .  A
O523        C533   1.268       .  A
O524        C532   1.279       .  A
O525        C534   1.270       .  A
O526        C535   1.272   1_655  A
O527        C534   1.282       .  A
O528        C535   1.276       .  A
O529        C536   1.278       .  A
O530        C536   1.273       .  A
C531        C541   1.483       .  S
C532        C551   1.466       .  S
C533        C741   1.482   1_455  S
C534        C571   1.481       .  S
C535        C771   1.486       .  S
C536        C581   1.480       .  S
C537        C538   1.406       .  A
C537        C542   1.401       .  A
C537        H543   1.083       .  S
C538        C539   1.405       .  A
C539        C540   1.396       .  A
C539        H544   1.080       .  S
C540        C541   1.405       .  A
C540        H545   1.083       .  S
C541        C542   1.407       .  A
C542        H546   1.083       .  S
C547        C548   1.405       .  A
C547        C552   1.400       .  A
C547        H553   1.082       .  S
C548        C549   1.397       .  A
C549        C550   1.390       .  A
C549        H554   1.083       .  S
C550        C551   1.406       .  A
C550        H555   1.083       .  S
C551        C552   1.401       .  A
C552        H556   1.083       .  S
C557        C558   1.405       .  A
C557        C562   1.405       .  A
C558        C559   1.400       .  A
C559        C560   1.398       .  A
C559        H564   1.083       .  S
C560        C561   1.409       .  A
C560        H565   1.083       .  S
C561        C562   1.408       .  A
C562        H566   1.083       .  S
C567        C572   1.398   1_554  A
C568        C569   1.409       .  A
C569        H574   1.083       .  S
C570        C571   1.404       .  A
C570        H575   1.082       .  S
C571        C572   1.407       .  A
C572        H576   1.084       .  S
C577        C578   1.398       .  A
C577        C582   1.388       .  A
C577        H583   1.083       .  S
C578        C579   1.408       .  A
C579        C580   1.409       .  A
C579        H584   1.082       .  S
C580        C581   1.407       .  A
C580        H585   1.083       .  S
C581        C582   1.405       .  A
C582        H586   1.083       .  S
C587        C588   1.401       .  A
C587        C592   1.394       .  A
C587        H593   1.083       .  S
C588        C589   1.407       .  A
C589        C590   1.411       .  A
C589        H594   1.082       .  S
C590        C591   1.407       .  A
C590        H595   1.083       .  S
C591        C592   1.405       .  A
C592        H596   1.084       .  S
C597        C598   1.405       .  A
C597        C602   1.408       .  A
C597        H603   1.084       .  S
C598        C599   1.402       .  A
C599        C600   1.398       .  A
C599        H604   1.083       .  S
C600        C601   1.408       .  A
C600        H605   1.083       .  S
C601        C602   1.411       .  A
C602        H606   1.082       .  S
C607        C612   1.393       .  A
C607        H613   1.083       .  S
C608        C609   1.409       .  A
C609        H614   1.084       .  S
C610        C611   1.409       .  A
C610        H615   1.082       .  S
C611        C612   1.409       .  A
C612        H616   1.084       .  S
C617        C618   1.405       .  A
C617        C622   1.390       .  A
C617        H623   1.081       .  S
C618        C619   1.409       .  A
C619        C620   1.402       .  A
C619        H624   1.082       .  S
C620        C621   1.402       .  A
C620        H625   1.083       .  S
C621        C622   1.400       .  A
C622        H626   1.085       .  S
C627        C628   1.402       .  A
C627        C632   1.398       .  A
C628        C629   1.408       .  A
C629        C630   1.412       .  A
C629        H634   1.083       .  S
C630        C631   1.407       .  A
C630        H635   1.082       .  S
C631        C632   1.406       .  A
C632        H636   1.084       .  S
C637        C638   1.409       .  A
C637        C642   1.397       .  A
C637        H643   1.083       .  S
C638        C639   1.406       .  A
C639        C640   1.405       .  A
C639        H644   1.083       .  S
C640        C641   1.410       .  A
C640        H645   1.083       .  S
C641        C642   1.404       .  A
C642        H646   1.079       .  S
C647        C648   1.405       .  A
C647        C652   1.404       .  A
C647        H653   1.082       .  S
C648        C649   1.407       .  A
C649        C650   1.391       .  A
C649        H654   1.083       .  S
C650        C651   1.397       .  A
C651        C652   1.405       .  A
C652        H656   1.083       .  S
C657        C658   1.404       .  A
C657        C662   1.405       .  A
C657        H663   1.083   1_565  S
C658        C659   1.400       .  A
C659        C660   1.400       .  A
C659        H664   1.083       .  S
C660        C661   1.410       .  A
C660        H665   1.083       .  S
C661        C662   1.409       .  A
C662        H666   1.083   1_565  S
C667        C672   1.403       .  A
C667        H673   1.083       .  S
C668        C669   1.404       .  A
C669        C670   1.397       .  A
C669        H674   1.081       .  S
C670        H675   1.083       .  S
C671        C672   1.406       .  A
C672        H676   1.083       .  S
C677        C678   1.405       .  A
C677        C682   1.403       .  A
C677        H683   1.082       .  S
C678        C679   1.396   1_565  A
C679        C680   1.389       .  A
C679        H684   1.082       .  S
C680        C681   1.406   1_545  A
C680        H685   1.084       .  S
C681        C682   1.402       .  A
C682        H686   1.083       .  S
C687        C688   1.407   1_565  A
C687        C692   1.408       .  A
C688        C689   1.401       .  A
C689        C690   1.397       .  A
C689        H694   1.083       .  S
C690        C691   1.405   1_545  A
C690        H695   1.083       .  S
C691        C692   1.405       .  A
C692        H696   1.083       .  S
C697        C698   1.408       .  A
C697        C702   1.407       .  A
C697        H703   1.083       .  S
C698        C699   1.401   1_565  A
C699        C700   1.399       .  A
C699        H704   1.083       .  S
C700        C701   1.408   1_545  A
C700        H705   1.084       .  S
C701        C702   1.404       .  A
C702        H706   1.083       .  S
C707        C708   1.406   1_545  A
C707        C712   1.403       .  A
C707        H713   1.082       .  S
C708        C709   1.397       .  A
C709        C710   1.386       .  A
C709        H714   1.082       .  S
C710        C711   1.406   1_565  A
C710        H715   1.084       .  S
C711        C712   1.404       .  A
C712        H716   1.082       .  S
C717        C718   1.409   1_554  A
C717        C722   1.399       .  A
C717        H723   1.083   1_455  S
C718        C719   1.406       .  A
C719        H724   1.083       .  S
C720        C721   1.409       .  A
C720        H725   1.083       .  S
C722        H726   1.080   1_455  S
C727        C728   1.406   1_655  A
C727        C732   1.404       .  A
C727        H733   1.082       .  S
C728        C729   1.395       .  A
C729        C730   1.391       .  A
C729        H734   1.083       .  S
C730        C731   1.407       .  A
C730        H735   1.083       .  S
C731        C732   1.404   1_455  A
C732        H736   1.083       .  S
C737        C738   1.409       .  A
C737        C742   1.411       .  A
C737        H743   1.083       .  S
C738        C739   1.402   1_455  A
C739        C740   1.395       .  A
C739        H744   1.083       .  S
C740        C741   1.405       .  A
C740        H745   1.084       .  S
C741        C742   1.406   1_655  A
C742        H746   1.082       .  S
C747        C748   1.405       .  A
C747        C752   1.408       .  A
C747        H753   1.082       .  S
C748        C749   1.405   1_655  A
C749        C750   1.396       .  A
C749        H754   1.084       .  S
C750        C751   1.402   1_455  A
C750        H755   1.083       .  S
C751        C752   1.408       .  A
C752        H756   1.083       .  S
C757        C758   1.400   1_556  A
C757        C762   1.390       .  A
C758        C759   1.405   1_654  A
C759        C760   1.402       .  A
C759        H764   1.082       .  S
C760        C761   1.406       .  A
C760        H765   1.082       .  S
C761        C762   1.404   1_455  A
C762        H766   1.083       .  S
C767        C768   1.403   1_655  A
C767        C772   1.404       .  A
C767        H773   1.083       .  S
C768        C769   1.401       .  A
C769        C770   1.399       .  A
C769        H774   1.083   1_556  S
C770        C771   1.407       .  A
C770        H775   1.083       .  S
C771        C772   1.409   1_455  A
C772        H776   1.083       .  S
