geometry optimzed in LAMMPS
_audit_creation_date              2020-12-01 
_audit_creation_method            'lammps2cif' 
_symmetry_space_group_name_H-M    'P1' 
_symmetry_Int_Tables_number       1 
_symmetry_cell_setting            triclinic 
loop_ 
_symmetry_equiv_pos_as_xyz 
  x,y,z 
_cell_length_a                    52.25528162 
_cell_length_b                    52.05561163304323 
_cell_length_c                    38.96107152654711 
_cell_angle_alpha                 89.89536827207715 
_cell_angle_beta                  89.83888144262106 
_cell_angle_gamma                 89.87549544017693 
loop_ 
_atom_site_label 
_atom_site_type_symbol 
_atom_site_fract_x 
_atom_site_fract_y 
_atom_site_fract_z 
_atom_site_charge 
N1          N  0.01629154  0.77252784  0.47260263    -0.03400
C2          C  0.02515072  0.74814686  0.46831766    -0.00800
C3          C  0.03831683  0.73987059  0.99694942    -0.23700
C4          C  0.03759633  0.75957600  0.02003506    -0.23900
C5          C  0.02411343  0.77920237  0.00459103    -0.00900
H6          H  0.04679515  0.72112176  0.00102060     0.12900
H7          H  0.04574114  0.75956111  0.04554356     0.12900
N8          N  0.98504687  0.24172254  0.01749603    -0.03400
C9          C  0.97868667  0.26662454  0.02380435    -0.00800
C10         C  0.97137793  0.27905276  0.49401951    -0.23700
C11         C  0.97350774  0.26151810  0.46817688    -0.23900
C12         C  0.98184331  0.23887620  0.48300394    -0.00900
H13         H  0.96611429  0.29907952  0.49130523     0.12900
H14         H  0.96963680  0.26494055  0.44127584     0.12900
N15         N  0.74191371  0.99719895  0.48725537    -0.03400
C16         C  0.76653627  0.00309375  0.47912373    -0.00800
C17         C  0.78110346  0.00623262  0.00830404    -0.23700
C18         C  0.76511784  0.00226119  0.03558929    -0.23900
C19         C  0.74116820  0.99693952  0.02230188    -0.00900
H20         H  0.80136794  0.01041654  0.00947692     0.12900
H21         H  0.77033573  0.00362175  0.06238347     0.12900
N22         N  0.27078412  0.00816570  0.02891911    -0.03400
C23         C  0.24502191  0.00661732  0.03417311    -0.00800
C24         C  0.23212612  0.00536806  0.50354417    -0.23700
C25         C  0.25015260  0.00609188  0.47815795    -0.23900
C26         C  0.27363011  0.00765648  0.49419107    -0.00900
H27         H  0.21163811  0.00386589  0.50005724     0.12900
H28         H  0.24660411  0.00476008  0.45086992     0.12900
N29         N  0.47788969  0.72275692  0.48556053    -0.03400
C30         C  0.47272000  0.74795058  0.47932634    -0.00800
C31         C  0.46319627  0.75969455  0.00846752    -0.23700
C32         C  0.46256461  0.74137184  0.03371353    -0.23900
C33         C  0.47163716  0.71895633  0.01918633    -0.00900
H34         H  0.45817538  0.77976374  0.01130917     0.12900
H35         H  0.45639410  0.74411241  0.05999334     0.12900
N36         N  0.51876040  0.25654316  0.02816174    -0.03400
C37         C  0.52725569  0.23231631  0.03486137    -0.00800
C38         C  0.53726722  0.22112732  0.50586706    -0.23700
C39         C  0.53526680  0.23890606  0.48012245    -0.23900
C40         C  0.52393546  0.26034364  0.49439933    -0.00900
H41         H  0.54467701  0.20177485  0.50345701     0.12900
H42         H  0.54121832  0.23644467  0.45369712     0.12900
N43         N  0.22962522  0.49263667  0.02053945    -0.03400
C44         C  0.25514091  0.49476415  0.02616265    -0.00800
C45         C  0.26814259  0.49955821  0.49583148    -0.23700
C46         C  0.25015337  0.50031710  0.47040596    -0.23900
C47         C  0.22678564  0.49603520  0.48606256    -0.00900
H48         H  0.28858145  0.50203087  0.49270203     0.12900
H49         H  0.25366198  0.50374938  0.44340170     0.12900
N50         N  0.75919751  0.50160914  0.47817428    -0.03400
C51         C  0.73474352  0.49416968  0.47177717    -0.00800
C52         C  0.72247344  0.48692263  0.00174038    -0.23700
C53         C  0.73971575  0.49000558  0.02770918    -0.23900
C54         C  0.76197712  0.49889228  0.01274320    -0.00900
H55         H  0.70285619  0.48054539  0.00438349     0.12900
H56         H  0.73650098  0.48595943  0.05463765     0.12900
O57         O  0.47180508  0.49957300  0.19854289    -0.88300
C58         C  0.46151845  0.53046762  0.29332889     0.87800
Mg59       Mg  0.46241015  0.46037690  0.18715944     1.58100
O60         O  0.52575804  0.52060656  0.27139925    -0.88000
O61         O  0.50430582  0.52636101  0.19677421    -0.75300
C62         C  0.51683783  0.39780884  0.31578683     0.92800
O63         O  0.42972935  0.48635791  0.25550612    -0.75100
O64         O  0.50052765  0.39522044  0.29187621    -0.82600
Mg65       Mg  0.44315290  0.52152478  0.22423883     1.58000
C66         C  0.57599847  0.48693676  0.33709155     0.92700
O67         O  0.45340821  0.55734557  0.19107848    -0.80900
H68         H  0.55481561  0.52646596  0.23882685    -0.06300
C69         C  0.49205650  0.46540300  0.32871824     0.87700
O70         O  0.50503924  0.44961861  0.19247600    -0.75400
O71         O  0.46980352  0.53066858  0.26354768    -0.88200
O72         O  0.56100599  0.50627810  0.33564153    -0.81000
C73         C  0.51351419  0.57575060  0.32604181     0.92900
C74         C  0.46667238  0.57773684  0.19448815     0.92700
Mg75       Mg  0.53929841  0.45422163  0.28635592     1.58000
O76         O  0.53022924  0.41812934  0.31875888    -0.80900
O77         O  0.55171885  0.48962908  0.25539337    -0.75200
O78         O  0.50352540  0.57554429  0.29613560    -0.81000
O79         O  0.41373537  0.51135096  0.18544290    -0.82700
O80         O  0.47706858  0.39975578  0.21594479    -0.81000
C81         C  0.54463614  0.51300739  0.25499733     0.87100
O82         O  0.51177704  0.44469710  0.24758866    -0.88200
O83         O  0.51021296  0.47518114  0.31294786    -0.88300
O84         O  0.47776561  0.44842528  0.31526082    -0.75300
Mg85       Mg  0.50370160  0.54969039  0.24736657     1.58000
O86         O  0.52462587  0.55600470  0.33832770    -0.82700
H87         H  0.49519613  0.50206062  0.15794649    -0.06400
O88         O  0.45536685  0.45474868  0.24069919    -0.88000
H89         H  0.42605084  0.44982051  0.27318040    -0.06300
H90         H  0.53923363  0.43884918  0.21258459    -0.06400
C91         C  0.43654782  0.46288308  0.25679088     0.87100
C92         C  0.49036659  0.50905685  0.18326901     0.87700
C93         C  0.51952954  0.44395721  0.21756795     0.87700
H94         H  0.48775809  0.47203983  0.35438478    -0.06400
O95         O  0.47555720  0.52415539  0.31858079    -0.75400
Mg96       Mg  0.47787902  0.42566933  0.26455285     1.58000
H97         H  0.44163784  0.53511640  0.29788983    -0.06400
C98         C  0.40575492  0.48973793  0.17492155     0.92700
O99         O  0.45488486  0.41841889  0.17407048    -0.82700
C100        C  0.46653053  0.39896250  0.18638975     0.92800
O101        O  0.48196021  0.58051208  0.21949973    -0.82700
Mg102      Mg  0.51824623  0.51431441  0.32467838     1.58200
O103        O  0.41942010  0.46944444  0.17717226    -0.81000
O104        O  0.56960807  0.46515062  0.32504637    -0.82700
O105        O  0.52223760  0.00559795  0.20070086    -0.88300
C106        C  0.55433092  0.01634163  0.29527647     0.87800
Mg107      Mg  0.48424831  0.01748100  0.18838309     1.58100
O108        O  0.53592033  0.95274988  0.28007266    -0.88000
O109        O  0.54412865  0.96948110  0.20264192    -0.75300
C110        C  0.41580286  0.98103651  0.32412179     0.92800
O111        O  0.51283988  0.05155393  0.25389829    -0.75100
O112        O  0.41508575  0.99548496  0.29782485    -0.82600
Mg113      Mg  0.54643293  0.03331103  0.22467795     1.58000
C114        C  0.49626500  0.91037314  0.35123264     0.92700
O115        O  0.58148435  0.01860449  0.19400170    -0.80900
H116        H  0.53764277  0.92061447  0.25207531    -0.06300
C117        C  0.48663056  0.99725509  0.33341883     0.87700
O118        O  0.46987282  0.97646893  0.20003023    -0.75400
O119        O  0.55271214  0.00693032  0.26618532    -0.88200
O120        O  0.51769132  0.92200474  0.34778254    -0.81000
C121        C  0.59321561  0.96109391  0.33199370     0.92900
C122        C  0.59992790  0.00275987  0.19776723     0.92700
Mg123      Mg  0.46872346  0.94895611  0.29814562     1.58000
O124        O  0.43428938  0.96540686  0.32909619    -0.80900
O125        O  0.50194269  0.92950071  0.26908302    -0.75200
O126        O  0.59286444  0.96923946  0.30106172    -0.81000
O127        O  0.53908044  0.06274878  0.18308437    -0.82700
O128        O  0.42208398  0.01081648  0.21860075    -0.81000
C129        C  0.52586889  0.93369002  0.26680491     0.87100
O130        O  0.46290560  0.97439431  0.25558950    -0.88200
O131        O  0.49367918  0.97649225  0.32093019    -0.88300
O132        O  0.47135864  0.01240118  0.31777856    -0.75300
Mg133      Mg  0.56716894  0.96980663  0.25290063     1.58000
O134        O  0.57309605  0.95231443  0.34646202    -0.82700
H135        H  0.52206868  0.98019871  0.16227876    -0.06400
O136        O  0.47914886  0.02854119  0.24072351    -0.88000
H137        H  0.47682981  0.06002017  0.26990283    -0.06300
H138        H  0.45567211  0.94496216  0.22419075    -0.06400
C139        C  0.48890061  0.04734809  0.25498836     0.87100
C140        C  0.52935961  0.98521176  0.18732128     0.87700
C141        C  0.46229150  0.96451602  0.22671050     0.87700
H142        H  0.49414595  0.00298155  0.35807016    -0.06400
O143        O  0.54703595  0.00420704  0.32195814    -0.75400
Mg144      Mg  0.44797226  0.01140916  0.26733163     1.58000
H145        H  0.56162234  0.03563601  0.29801770    -0.06400
C146        C  0.51843276  0.07129996  0.16998169     0.92700
O147        O  0.44323320  0.02741333  0.17414888    -0.82700
C148        C  0.42265356  0.01890669  0.18760824     0.92800
O149        O  0.60011871  0.98633500  0.22202882    -0.82700
Mg150      Mg  0.53173553  0.96341570  0.33285843     1.58200
O151        O  0.49741345  0.05882682  0.17232555    -0.81000
O152        O  0.47545529  0.92026091  0.34052477    -0.82700
O153        O  0.01619820  0.99489522  0.18770262    -0.88300
C154        C  0.02784179  0.96067734  0.28018007     0.87800
Mg155      Mg  0.02710331  0.03353707  0.17652714     1.58100
O156        O  0.96383111  0.97612383  0.26440831    -0.88000
O157        O  0.98139079  0.97112544  0.18773544    -0.75300
C158        C  0.98135774  0.09865609  0.30887717     0.92800
O159        O  0.06019264  0.00491744  0.24266476    -0.75100
O160        O  0.99723694  0.10045428  0.28420650    -0.82600
Mg161      Mg  0.04448323  0.97108115  0.21126200     1.58000
C162        C  0.91936276  0.01229217  0.33450162     0.92700
O163        O  0.03151707  0.93674002  0.17880970    -0.80900
H164        H  0.93263754  0.97281638  0.23516566    -0.06300
C165        C  0.00365892  0.02875150  0.31991283     0.87700
O166        O  0.98525542  0.04631722  0.18513922    -0.75400
O167        O  0.01824181  0.96219519  0.25126456    -0.88200
O168        O  0.93325563  0.99221613  0.33149294    -0.81000
C169        C  0.97415890  0.91850052  0.31529192     0.92900
C170        C  0.01646450  0.91753054  0.18040386     0.92700
Mg171      Mg  0.95542098  0.04320540  0.28183555     1.58000
O172        O  0.96759784  0.07871275  0.31315344    -0.80900
O173        O  0.93924940  0.00905056  0.25193731    -0.75200
O174        O  0.98191872  0.91891273  0.28412395    -0.81000
O175        O  0.07438748  0.98038406  0.17127618    -0.82700
O176        O  0.01623703  0.09421239  0.20653595    -0.81000
C177        C  0.94463522  0.98526669  0.25036065     0.87100
O178        O  0.98136167  0.05145452  0.24078271    -0.88200
O179        O  0.98453583  0.01997590  0.30535666    -0.88300
O180        O  0.01799061  0.04548482  0.30577601    -0.75300
Mg181      Mg  0.98218942  0.94631013  0.23677711     1.58000
O182        O  0.96614048  0.93883188  0.33016454    -0.82700
H183        H  0.99115743  0.99531656  0.14898040    -0.06400
O184        O  0.03624699  0.03827790  0.22957691    -0.88000
H185        H  0.06637928  0.04085399  0.26091195    -0.06300
H186        H  0.95268822  0.05885165  0.20829995    -0.06400
C187        C  0.05483384  0.02873360  0.24467007     0.87100
C188        C  0.99635160  0.98731304  0.17362819     0.87700
C189        C  0.97229139  0.05269928  0.21149666     0.87700
H190        H  0.00865949  0.02155699  0.34508312    -0.06400
O191        O  0.01579882  0.96782256  0.30687818    -0.75400
Mg192      Mg  0.01675643  0.06856707  0.25513471     1.58000
H193        H  0.04732731  0.95396678  0.28264980    -0.06400
C194        C  0.08281708  0.00219010  0.16181499     0.92700
O195        O  0.03593459  0.07511917  0.16281009    -0.82700
C196        C  0.02522895  0.09476513  0.17603989     0.92800
O197        O  0.00007890  0.91513262  0.20442100    -0.82700
Mg198      Mg  0.97453285  0.98088747  0.31696640     1.58200
O199        O  0.06932709  0.02255520  0.16476058    -0.81000
O200        O  0.92650603  0.03401666  0.32300602    -0.82700
O201        O  0.98076883  0.49225809  0.18989987    -0.88300
C202        C  0.94699213  0.47898394  0.28297507     0.87800
Mg203      Mg  0.01869847  0.47975821  0.17828639     1.58100
O204        O  0.96586322  0.54291038  0.27107247    -0.88000
O205        O  0.95913059  0.52848433  0.19324611    -0.75300
C206        C  0.08411503  0.51242126  0.31700626     0.92800
O207        O  0.98829924  0.44419573  0.24088173    -0.75100
O208        O  0.08536842  0.49774208  0.29101863    -0.82600
Mg209      Mg  0.95572280  0.46412975  0.21173271     1.58000
C210        C  0.00484646  0.58256533  0.34449948     0.92700
O211        O  0.92184345  0.48046018  0.18089057    -0.80900
H212        H  0.96471129  0.57563288  0.24412099    -0.06300
C213        C  0.01350088  0.49649975  0.32338175     0.87700
O214        O  0.03385740  0.52010209  0.19120768    -0.75400
O215        O  0.94905855  0.48924478  0.25441468    -0.88200
O216        O  0.98341114  0.57121175  0.34034851    -0.81000
C217        C  0.90809379  0.53447479  0.32168238     0.92900
C218        C  0.90348873  0.49634064  0.18493885     0.92700
Mg219      Mg  0.03261589  0.54540934  0.28990498     1.58000
O220        O  0.06582163  0.52833754  0.32099375    -0.80900
O221        O  0.00019685  0.56587604  0.26082721    -0.75200
O222        O  0.90806968  0.52638680  0.29070349    -0.81000
O223        O  0.96330312  0.43598642  0.16881514    -0.82700
O224        O  0.08070852  0.48318577  0.21100625    -0.81000
C225        C  0.97622932  0.56211359  0.25847831     0.87100
O226        O  0.03926676  0.52067565  0.24700360    -0.88200
O227        O  0.00714019  0.51760231  0.31129183    -0.88300
O228        O  0.02870362  0.48133600  0.30773098    -0.75300
Mg229      Mg  0.93497920  0.52683423  0.24282207     1.58000
O230        O  0.92853873  0.54222070  0.33606149    -0.82700
H231        H  0.98215493  0.51907604  0.15312918    -0.06400
O232        O  0.02241588  0.46730004  0.23014941    -0.88000
H233        H  0.02389855  0.43472761  0.25735347    -0.06300
H234        H  0.04830921  0.55058450  0.21709051    -0.06400
C235        C  0.01223768  0.44808512  0.24293810     0.87100
C236        C  0.97419819  0.51321246  0.17755884     0.87700
C237        C  0.04104366  0.53119489  0.21858386     0.87700
H238        H  0.00530811  0.49044684  0.34758856    -0.06400
O239        O  0.95388858  0.49033463  0.31032052    -0.75400
Mg240      Mg  0.05324306  0.48302396  0.25844169     1.58000
H241        H  0.93961300  0.45964538  0.28466239    -0.06400
C242        C  0.98426929  0.42730833  0.15674913     0.92700
O243        O  0.05931435  0.46847418  0.16577345    -0.82700
C244        C  0.08016279  0.47505163  0.18007444     0.92800
O245        O  0.90268650  0.51162323  0.21037903    -0.82700
Mg246      Mg  0.96936913  0.53066237  0.32313074     1.58200
O247        O  0.00533683  0.43932269  0.16067399    -0.81000
O248        O  0.02561282  0.57308212  0.33304003    -0.82700
C249        C  0.78525193  0.50328237  0.03305488    -0.01200
C250        C  0.78385504  0.51984395  0.06114526    -0.09200
C251        C  0.80350963  0.52071492  0.08512641    -0.18100
C252        C  0.82505014  0.50437506  0.08216658     0.04300
C253        C  0.82678812  0.48823479  0.05277762     0.18500
C254        C  0.80704386  0.48806037  0.02829885    -0.19500
C255        C  0.84764196  0.47157903  0.04884328    -0.20800
C256        C  0.86647469  0.47003585  0.07394861    -0.19300
C257        C  0.86498219  0.48520751  0.10354371     0.19900
C258        C  0.84443336  0.50285996  0.10785347     0.02000
C259        C  0.84390113  0.51787841  0.13805099    -0.14000
C260        C  0.86277844  0.51529145  0.16299046    -0.11700
C261        C  0.88291378  0.49775630  0.15888621     0.01600
C262        C  0.88390060  0.48277081  0.12896637    -0.23900
H263        H  0.76696514  0.53158588  0.06516048     0.09600
H264        H  0.80075095  0.53373767  0.10623873     0.13100
H265        H  0.80785553  0.47493038  0.00672379     0.11900
H266        H  0.84913802  0.45927266  0.02650390     0.13000
H267        H  0.88217323  0.45666146  0.07037133     0.12100
H268        H  0.82921255  0.53184762  0.14328729     0.09200
H269        H  0.86161201  0.52732800  0.18559650     0.12400
H270        H  0.89951464  0.46930464  0.12527032     0.14300
C271        C  0.77842964  0.50987603  0.45373265    -0.01200
C272        C  0.79544978  0.52970728  0.46193157    -0.09200
C273        C  0.81565738  0.53614265  0.43995337    -0.18100
C274        C  0.81940277  0.52306362  0.40852681     0.04300
C275        C  0.80126259  0.50392493  0.39943858     0.18500
C276        C  0.78121741  0.49742588  0.42204698    -0.19500
C277        C  0.80355334  0.49094275  0.36814904    -0.20800
C278        C  0.82389778  0.49599114  0.34605873    -0.19300
C279        C  0.84271297  0.51389087  0.35487242     0.19900
C280        C  0.84067534  0.52787139  0.38611088     0.02000
C281        C  0.86048968  0.54536527  0.39400887    -0.14000
C282        C  0.88183543  0.54803398  0.37255078    -0.11700
C283        C  0.88404177  0.53379293  0.34216369     0.01600
C284        C  0.86402156  0.51722485  0.33311229    -0.23900
H285        H  0.79324083  0.54022677  0.48568035     0.09600
H286        H  0.82804785  0.55139272  0.44834693     0.13100
H287        H  0.76830491  0.48197104  0.41547219     0.11900
H288        H  0.78966071  0.47653282  0.36087570     0.13000
H289        H  0.82525158  0.48533679  0.32224333     0.12100
H290        H  0.86044232  0.55673142  0.41709882     0.09200
H291        H  0.89692814  0.56104694  0.38012652     0.12400
H292        H  0.86556661  0.50593542  0.30983059     0.14300
C293        C  0.60166955  0.48972682  0.35289376    -0.01200
C294        C  0.61147151  0.51393471  0.36157440    -0.09200
C295        C  0.63593014  0.51633917  0.37585673    -0.18100
C296        C  0.65135982  0.49445043  0.38217481     0.04300
C297        C  0.64120915  0.47001275  0.37334901     0.18500
C298        C  0.61680735  0.46793285  0.35879695    -0.19500
C299        C  0.65524377  0.44760567  0.37962751    -0.20800
C300        C  0.67881741  0.44874703  0.39576983    -0.19300
C301        C  0.68902581  0.47234911  0.40581127     0.19900
C302        C  0.67595312  0.49567241  0.39821455     0.02000
C303        C  0.68758789  0.51895845  0.40857814    -0.14000
C304        C  0.70955101  0.51876674  0.42912327    -0.11700
C305        C  0.72067520  0.49550387  0.43918852     0.01600
C306        C  0.71127703  0.47254793  0.42576551    -0.23900
H307        H  0.60025508  0.53113745  0.35717214     0.09600
H308        H  0.64210533  0.53551883  0.38206969     0.13100
H309        H  0.60946267  0.44906895  0.35238637     0.11900
H310        H  0.64761814  0.42894676  0.37279965     0.13000
H311        H  0.68879974  0.43095286  0.40134701     0.12100
H312        H  0.67938549  0.53748764  0.40282226     0.09200
H313        H  0.71659383  0.53660452  0.93942096     0.12400
H314        H  0.71980014  0.45452244  0.43397542     0.14300
C315        C  0.20272741  0.49569537  0.46659892    -0.01200
C316        C  0.18265700  0.51246647  0.47448723    -0.09200
C317        C  0.16185317  0.51493730  0.45218866    -0.18100
C318        C  0.16080333  0.50065804  0.42127281     0.04300
C319        C  0.18071465  0.48263323  0.41475774     0.18500
C320        C  0.20133826  0.48041559  0.43728872    -0.19500
C321        C  0.18045943  0.46747290  0.38520793    -0.20800
C322        C  0.16116228  0.47030898  0.36120933    -0.19300
C323        C  0.14186583  0.48859085  0.36601837     0.19900
C324        C  0.14119710  0.50394668  0.39617299     0.02000
C325        C  0.12133435  0.52230787  0.39931196    -0.14000
C326        C  0.10308438  0.52533936  0.37345625    -0.11700
C327        C  0.10400491  0.51018531  0.34375975     0.01600
C328        C  0.12339370  0.49175578  0.34044974    -0.23900
H329        H  0.18359845  0.52443542  0.49715376     0.09600
H330        H  0.14723572  0.52852194  0.45944639     0.13100
H331        H  0.21692101  0.46729513  0.43145959     0.11900
H332        H  0.19552024  0.45357352  0.38036601     0.13000
H333        H  0.16163040  0.45846222  0.33834927     0.12100
H334        H  0.11950685  0.53475418  0.42125835     0.09200
H335        H  0.08813405  0.53955485  0.37684793     0.12400
H336        H  0.12420425  0.47972084  0.31776037     0.14300
C337        C  0.10404990  0.47377800  0.15936570    -0.01200
C338        C  0.10424142  0.45994383  0.12853620    -0.09200
C339        C  0.12537840  0.46046393  0.10664995    -0.18100
C340        C  0.14723531  0.47519108  0.11462630     0.04300
C341        C  0.14738753  0.48864846  0.14640101     0.18500
C342        C  0.12601498  0.48763078  0.16855458    -0.19500
C343        C  0.16854599  0.50366759  0.15531818    -0.20800
C344        C  0.18904558  0.50652060  0.13273198    -0.19300
C345        C  0.18905435  0.49419453  0.10080247     0.19900
C346        C  0.16852386  0.47773277  0.09170116     0.02000
C347        C  0.16997713  0.46499161  0.05969236    -0.14000
C348        C  0.19037548  0.46929530  0.03720513    -0.11700
C349        C  0.20980493  0.48671795  0.04533772     0.01600
C350        C  0.20917834  0.49876052  0.07752846    -0.23900
H351        H  0.08767937  0.44889280  0.12085297     0.09600
H352        H  0.12367338  0.44964056  0.08326680     0.13100
H353        H  0.12610161  0.49850144  0.19227777     0.11900
H354        H  0.16896209  0.51381539  0.17958350     0.13000
H355        H  0.20483918  0.51878457  0.14007514     0.12100
H356        H  0.15567899  0.45160386  0.05118879     0.09200
H357        H  0.19083400  0.45903492  0.01307261     0.12400
H358        H  0.22379783  0.51253184  0.08405465     0.14300
C359        C  0.37981210  0.48878888  0.15982353    -0.01200
C360        C  0.36519276  0.51137290  0.15855431    -0.09200
C361        C  0.34142296  0.51183906  0.14280494    -0.18100
C362        C  0.33136589  0.48964224  0.12718824     0.04300
C363        C  0.34553728  0.46635541  0.12993807     0.18500
C364        C  0.36948361  0.46606295  0.14643607    -0.19500
C365        C  0.33620550  0.44384072  0.11491367    -0.20800
C366        C  0.31405199  0.44437711  0.09516517    -0.19300
C367        C  0.30066496  0.46741111  0.09019665     0.19900
C368        C  0.30856018  0.49016274  0.10725019     0.02000
C369        C  0.29431980  0.51293139  0.10159317    -0.14000
C370        C  0.27504480  0.51370910  0.07710626    -0.11700
C371        C  0.26855552  0.49169733  0.05882513     0.01600
C372        C  0.28057386  0.46834505  0.06636746    -0.23900
H373        H  0.37230916  0.52913993  0.16930862     0.09600
H374        H  0.33179997  0.53013356  0.14260816     0.13100
H375        H  0.38041777  0.44836038  0.14778549     0.11900
H376        H  0.34665595  0.42591373  0.11730731     0.13000
H377        H  0.30798854  0.42692918  0.58241782     0.12100
H378        H  0.29846663  0.53084543  0.11410830     0.09200
H379        H  0.26619709  0.53198123  0.07090075     0.12400
H380        H  0.27583263  0.45144961  0.55131655     0.14300
C381        C  0.51916554  0.09681159  0.15251585    -0.01200
C382        C  0.54220096  0.11060639  0.15119503    -0.09200
C383        C  0.54335480  0.13507371  0.13661675    -0.18100
C384        C  0.52137187  0.14682896  0.12250629     0.04300
C385        C  0.49808132  0.13271973  0.12319622     0.18500
C386        C  0.49713180  0.10805782  0.13827850    -0.19500
C387        C  0.47596655  0.14321758  0.10848246    -0.20800
C388        C  0.47666151  0.16702643  0.09213112    -0.19300
C389        C  0.49941415  0.18113316  0.09043915     0.19900
C390        C  0.52191526  0.17162451  0.10657597     0.02000
C391        C  0.54424748  0.18692608  0.10482334    -0.14000
C392        C  0.54496039  0.20901707  0.08449369    -0.11700
C393        C  0.52337611  0.21699349  0.06624058     0.01600
C394        C  0.50028303  0.20383236  0.07075307    -0.23900
H395        H  0.55960750  0.10254799  0.16176148     0.09600
H396        H  0.56185168  0.14413209  0.13649974     0.13100
H397        H  0.47918773  0.09764522  0.13892964     0.11900
H398        H  0.45810743  0.13266469  0.10893153     0.13000
H399        H  0.45939728  0.17420326  0.08006849     0.12100
H400        H  0.56180256  0.18172352  0.11746137     0.09200
H401        H  0.56303204  0.21887477  0.08094156     0.12400
H402        H  0.48366129  0.20979161  0.05611384     0.14300
C403        C  0.51849242  0.28337971  0.47381316    -0.01200
C404        C  0.50062826  0.28146113  0.44741578    -0.09200
C405        C  0.49897332  0.30038484  0.42229232    -0.18100
C406        C  0.51585740  0.32157639  0.42229673     0.04300
C407        C  0.53289670  0.32427043  0.45047029     0.18500
C408        C  0.53403518  0.30516116  0.47604653    -0.19500
C409        C  0.54930799  0.34546726  0.45212500    -0.20800
C410        C  0.54947579  0.36382356  0.42604657    -0.19300
C411        C  0.53360942  0.36115111  0.39734672     0.19900
C412        C  0.51673652  0.33983817  0.39500286     0.02000
C413        C  0.50191223  0.33727544  0.36496811    -0.14000
C414        C  0.50303628  0.35554392  0.33897563    -0.11700
C415        C  0.51882867  0.37713318  0.34180043     0.01600
C416        C  0.53441458  0.37964697  0.37092890    -0.23900
H417        H  0.48851390  0.26465888  0.44553348     0.09600
H418        H  0.48468465  0.29747848  0.40286434     0.13100
H419        H  0.54801450  0.30644098  0.49649571     0.11900
H420        H  0.56224507  0.34775371  0.47359248     0.13000
H421        H  0.56240648  0.38000329  0.42807511     0.12100
H422        H  0.48930440  0.32132793  0.36054626     0.09200
H423        H  0.49090541  0.35290964  0.31676887     0.12400
H424        H  0.54681597  0.39621269  0.37338825     0.14300
C425        C  0.50756259  0.27475254  0.05195430    -0.01200
C426        C  0.48757178  0.29109792  0.04179346    -0.09200
C427        C  0.47829709  0.31029068  0.06370603    -0.18100
C428        C  0.48852552  0.31357455  0.09699725     0.04300
C429        C  0.50780146  0.29602548  0.10782851     0.18500
C430        C  0.51725956  0.27716585  0.08527933    -0.19500
C431        C  0.51788750  0.29764321  0.14096745    -0.20800
C432        C  0.50977074  0.31673865  0.16339934    -0.19300
C433        C  0.49178578  0.33511594  0.15302777     0.19900
C434        C  0.48072719  0.33377800  0.11976305     0.02000
C435        C  0.46311728  0.35326683  0.11044259    -0.14000
C436        C  0.45767474  0.37374003  0.13261969    -0.11700
C437        C  0.46925813  0.37537717  0.16501855     0.01600
C438        C  0.48566651  0.35544869  0.17534930    -0.23900
H439        H  0.47902326  0.28908354  0.01670466     0.09600
H440        H  0.46307717  0.32220583  0.05390796     0.13100
H441        H  0.53281723  0.26480364  0.09339360     0.11900
H442        H  0.53236260  0.28414884  0.14953244     0.13000
H443        H  0.51820091  0.31757909  0.18875135     0.12100
H444        H  0.45392758  0.35371647  0.08571262     0.09200
H445        H  0.44487729  0.38875287  0.12387979     0.12400
H446        H  0.49481650  0.35639317  0.20025395     0.14300
C447        C  0.47986947  0.76321995  0.44888531    -0.01200
C448        C  0.50456942  0.77344855  0.44677416    -0.09200
C449        C  0.50932585  0.79574920  0.42759667    -0.18100
C450        C  0.48921482  0.80874896  0.41048489     0.04300
C451        C  0.46461534  0.79702333  0.41078508     0.18500
C452        C  0.46032128  0.77435469  0.42949188    -0.19500
C453        C  0.44390553  0.80899983  0.39467139    -0.20800
C454        C  0.44664969  0.83311203  0.37990820    -0.19300
C455        C  0.47025341  0.84573947  0.38048167     0.19900
C456        C  0.49211738  0.83354532  0.39483028     0.02000
C457        C  0.51558303  0.84714341  0.39377803    -0.14000
C458        C  0.51700699  0.87203511  0.37996364    -0.11700
C459        C  0.49513888  0.88423479  0.36686252     0.01600
C460        C  0.47191584  0.87070451  0.36705321    -0.23900
H461        H  0.51976048  0.76543769  0.46235952     0.09600
H462        H  0.52855487  0.80319728  0.42836871     0.13100
H463        H  0.44106083  0.76674794  0.43178965     0.11900
H464        H  0.42517492  0.80007927  0.39462616     0.13000
H465        H  0.42999895  0.84220231  0.36855866     0.12100
H466        H  0.53314588  0.83905436  0.40349054     0.09200
H467        H  0.53529816  0.88174938  0.37959255     0.12400
H468        H  0.45485599  0.87959521  0.35651955     0.14300
C469        C  0.47407092  0.69502012  0.03922691    -0.01200
C470        C  0.45806413  0.67406561  0.03307522    -0.09200
C471        C  0.45642476  0.65393846  0.05693880    -0.18100
C472        C  0.47081034  0.65439837  0.08773822     0.04300
C473        C  0.48811457  0.67514774  0.09252744     0.18500
C474        C  0.48946646  0.69512389  0.06847243    -0.19500
C475        C  0.50339472  0.67636342  0.12186224    -0.20800
C476        C  0.50156991  0.65764350  0.14709224    -0.19300
C477        C  0.48420085  0.63740001  0.14380481     0.19900
C478        C  0.46851040  0.63537567  0.11418011     0.02000
C479        C  0.45105535  0.61462409  0.11272305    -0.14000
C480        C  0.44979665  0.59635704  0.13916785    -0.11700
C481        C  0.46572290  0.59826089  0.16796680     0.01600
C482        C  0.48262808  0.61908456  0.17010539    -0.23900
H483        H  0.44588428  0.67389107  0.01063328     0.09600
H484        H  0.44334809  0.63860302  0.05098404     0.13100
H485        H  0.50180974  0.71148642  0.07318249     0.11900
H486        H  0.51672049  0.69206442  0.12547633     0.13000
H487        H  0.51364844  0.65918128  0.16957168     0.12100
H488        H  0.43821379  0.61195242  0.09142845     0.09200
H489        H  0.43657995  0.58047692  0.13677002     0.12400
H490        H  0.49514362  0.62086242  0.19213556     0.14300
C491        C  0.48630325  0.70354646  0.46127900    -0.01200
C492        C  0.50494267  0.68542912  0.47037426    -0.09200
C493        C  0.51124905  0.66519256  0.44833745    -0.18100
C494        C  0.49897790  0.66234117  0.41621499     0.04300
C495        C  0.48053480  0.68118984  0.40675061     0.18500
C496        C  0.47455328  0.70156108  0.42910700    -0.19500
C497        C  0.46768625  0.67925249  0.37538752    -0.20800
C498        C  0.47241704  0.65876984  0.35336489    -0.19300
C499        C  0.49023015  0.63972179  0.36200737     0.19900
C500        C  0.50395313  0.64131630  0.39342781     0.02000
C501        C  0.52173931  0.62156617  0.40082846    -0.14000
C502        C  0.52522819  0.60086914  0.37849767    -0.11700
C503        C  0.51133360  0.59908567  0.34784598     0.01600
C504        C  0.49407991  0.61884598  0.33960996    -0.23900
H505        H  0.51454628  0.68681838  0.49487350     0.09600
H506        H  0.52557292  0.65191341  0.45742602     0.10700
H507        H  0.45989963  0.71535927  0.42208585     0.11900
H508        H  0.45361618  0.69354906  0.36800010     0.13000
H509        H  0.46189432  0.65771839  0.32946842     0.12100
H510        H  0.53307676  0.62136945  0.42389276     0.09200
H511        H  0.53873228  0.58597151  0.38557000     0.12400
H512        H  0.48304749  0.61765732  0.31612442     0.14300
C513        C  0.23073829  0.00646792  0.06677186    -0.01200
C514        C  0.22091901  0.02962622  0.07932912    -0.09200
C515        C  0.19862871  0.02994316  0.09936023    -0.18100
C516        C  0.18518736  0.00694959  0.10662276     0.04300
C517        C  0.19663472  0.98338165  0.09623303     0.18500
C518        C  0.21931634  0.98338095  0.07686979    -0.19500
C519        C  0.18439802  0.96001837  0.10285995    -0.20800
C520        C  0.16037069  0.95954027  0.11812485    -0.19300
C521        C  0.14790683  0.98241524  0.12693503     0.19900
C522        C  0.16024089  0.00647178  0.12194621     0.02000
C523        C  0.14654451  0.02894574  0.13110101    -0.14000
C524        C  0.12144972  0.02755498  0.14364706    -0.11700
C525        C  0.10924337  0.00378783  0.14784925     0.01600
C526        C  0.12285630  0.98130428  0.13994137    -0.23900
H527        H  0.22919599  0.04767634  0.07108550     0.09600
H528        H  0.19161411  0.04854934  0.10703932     0.13100
H529        H  0.22670515  0.96552631  0.56662213     0.11900
H530        H  0.19311261  0.94200532  0.09516885     0.13000
H531        H  0.15113593  0.94113999  0.12212772     0.12100
H532        H  0.15455528  0.04789896  0.12841048     0.09200
H533        H  0.11160895  0.04520900  0.15020764     0.12400
H534        H  0.11377409  0.96275704  0.14335055     0.14300
C535        C  0.39516758  0.98367369  0.35016082    -0.01200
C536        C  0.39523697  0.96897431  0.38034108    -0.09200
C537        C  0.37686641  0.97308971  0.40597800    -0.18100
C538        C  0.35781554  0.99227114  0.40231921     0.04300
C539        C  0.35794215  0.00715933  0.37168336     0.18500
C540        C  0.37626964  0.00261312  0.34606560    -0.19500
C541        C  0.33989848  0.02670264  0.36678092    -0.20800
C542        C  0.32137448  0.03161634  0.39147788    -0.19300
C543        C  0.32028204  0.01692782  0.42152495     0.19900
C544        C  0.33854012  0.99714950  0.42765559     0.02000
C545        C  0.33622513  0.98279767  0.45845623    -0.14000
C546        C  0.31595574  0.98717056  0.48128185    -0.11700
C547        C  0.29770301  0.00612828  0.47431801     0.01600
C548        C  0.30035200  0.02132167  0.44488818    -0.23900
H549        H  0.40976669  0.95442648  0.38441461     0.09600
H550        H  0.37825307  0.96112705  0.42850910     0.13100
H551        H  0.37606736  0.01435848  0.32303364     0.11900
H552        H  0.34004176  0.03822614  0.34356444     0.13000
H553        H  0.30751236  0.04672983  0.38676030     0.12100
H554        H  0.34926322  0.96752125  0.46507870     0.09200
H555        H  0.31390683  0.97496481  0.50364551     0.12400
H556        H  0.28610170  0.03595283  0.43945252     0.14300
C557        C  0.39905845  0.01776506  0.16620192    -0.01200
C558        C  0.37744527  0.00392511  0.17704257    -0.09200
C559        C  0.35572035  0.00196183  0.15611062    -0.18100
C560        C  0.35478867  0.01399433  0.12349966     0.04300
C561        C  0.37679516  0.02790472  0.11266390     0.18500
C562        C  0.39850126  0.02953615  0.13379062    -0.19500
C563        C  0.37709336  0.04022485  0.08072729    -0.20800
C564        C  0.35584285  0.03946802  0.05943835    -0.19300
C565        C  0.33382752  0.02605502  0.06925297     0.19900
C566        C  0.33297184  0.01283658  0.10119489     0.02000
C567        C  0.31038532  0.99900081  0.10909235    -0.14000
C568        C  0.28998422  0.99774494  0.08578347    -0.11700
C569        C  0.29100647  0.01074936  0.05421966     0.01600
C570        C  0.31278600  0.02555049  0.04689186    -0.23900
H571        H  0.37739678  0.99428490  0.20169070     0.09600
H572        H  0.33992668  0.99096227  0.16617449     0.13100
H573        H  0.41507187  0.04015213  0.12486778     0.11900
H574        H  0.39385260  0.05071279  0.07222610     0.13000
H575        H  0.35671221  0.04933106  0.03492554     0.12100
H576        H  0.30818661  0.98842285  0.13272350     0.09200
H577        H  0.27370722  0.98588885  0.09219780     0.12400
H578        H  0.31358264  0.03652109  0.02327831     0.14300
C579        C  0.77851457  0.00348819  0.44496560    -0.01200
C580        C  0.78842584  0.98058483  0.43184656    -0.09200
C581        C  0.80921348  0.98096648  0.40924729    -0.18100
C582        C  0.82089086  0.00444896  0.39973080     0.04300
C583        C  0.80868093  0.02764745  0.40995001     0.18500
C584        C  0.78762130  0.02693276  0.43234743    -0.19500
C585        C  0.81876203  0.05141132  0.39999029    -0.20800
C586        C  0.84159751  0.05269148  0.38170678    -0.19300
C587        C  0.85514594  0.03027026  0.37363012     0.19900
C588        C  0.84487810  0.00579098  0.38217690     0.02000
C589        C  0.85976230  0.98381106  0.37454614    -0.14000
C590        C  0.88390098  0.98606303  0.35950115    -0.11700
C591        C  0.89396392  0.01020268  0.35116122     0.01600
C592        C  0.87928401  0.03222487  0.35794754    -0.23900
H593        H  0.78165582  0.96231818  0.44160623     0.09600
H594        H  0.81649952  0.96255939  0.40111758     0.13100
H595        H  0.77995704  0.04475049  0.94273219     0.11900
H596        H  0.80925266  0.06917955  0.90708155     0.13000
H597        H  0.84921759  0.07141142  0.37501375     0.12100
H598        H  0.85356436  0.96459444  0.38061883     0.09200
H599        H  0.89470836  0.96871640  0.35431188     0.12400
H600        H  0.88684224  0.05104905  0.35160779     0.14300
C601        C  0.71852367  0.99377140  0.04491057    -0.01200
C602        C  0.72158868  0.98061075  0.07601193    -0.09200
C603        C  0.70283403  0.98149657  0.10140339    -0.18100
C604        C  0.68006920  0.99569130  0.09657808     0.04300
C605        C  0.67636191  0.00795810  0.06426762     0.18500
C606        C  0.69558034  0.00697023  0.03881720    -0.19500
C607        C  0.65377991  0.02166481  0.05796822    -0.20800
C608        C  0.63487138  0.02360413  0.08310511    -0.19300
C609        C  0.63817959  0.01215149  0.11536884     0.19900
C610        C  0.66091960  0.99816759  0.12265736     0.02000
C611        C  0.66354942  0.98737979  0.15582706    -0.14000
C612        C  0.64404728  0.98951938  0.18017896    -0.11700
C613        C  0.62135138  0.00270753  0.17267065     0.01600
C614        C  0.61874234  0.01436809  0.14031440    -0.23900
H615        H  0.73911474  0.97015296  0.08120997     0.09600
H616        H  0.70694233  0.97107777  0.12466093     0.13100
H617        H  0.69320133  0.01755957  0.01504297     0.11900
H618        H  0.65072397  0.03099401  0.03341654     0.13000
H619        H  0.61757771  0.03426680  0.07732238     0.12100
H620        H  0.68038927  0.97704494  0.16381862     0.09200
H621        H  0.64671736  0.98055696  0.20503114     0.12400
H622        H  0.60126032  0.02460995  0.13415196     0.14300
C623        C  0.72152102  0.99137141  0.46348085    -0.01200
C624        C  0.71782141  0.00652695  0.43416260    -0.09200
C625        C  0.69832445  0.00097043  0.41082079    -0.18100
C626        C  0.68152750  0.98004855  0.41626872     0.04300
C627        C  0.68496570  0.96507156  0.44646299     0.18500
C628        C  0.70508983  0.97052081  0.46928393    -0.19500
C629        C  0.66796517  0.94507178  0.45404203    -0.20800
C630        C  0.64702196  0.94025468  0.43297834    -0.19300
C631        C  0.64310494  0.95460378  0.40300158     0.19900
C632        C  0.66093383  0.97398973  0.39350171     0.02000
C633        C  0.65732342  0.98648157  0.36165060    -0.14000
C634        C  0.63603674  0.98117701  0.34126314    -0.11700
C635        C  0.61736056  0.96352614  0.35192883     0.01600
C636        C  0.62131635  0.94992411  0.38263484    -0.23900
H637        H  0.72987493  0.02307515  0.42954649     0.09600
H638        H  0.69640532  0.01383895  0.38927537     0.13100
H639        H  0.70791743  0.95868675  0.99193624     0.11900
H640        H  0.67046125  0.93354000  0.47698451     0.13000
H641        H  0.63378733  0.92515650  0.44018920     0.12100
H642        H  0.67066401  0.00043656  0.35177033     0.09200
H643        H  0.63375103  0.99175488  0.31748845     0.12400
H644        H  0.60730594  0.93584377  0.39087635     0.14300
C645        C  0.98658805  0.21578927  0.46212746    -0.01200
C646        C  0.00097429  0.21862363  0.43208151    -0.09200
C647        C  0.00089198  0.19972934  0.40699808    -0.18100
C648        C  0.98606274  0.17731180  0.41112973     0.04300
C649        C  0.97344832  0.17334544  0.44311097     0.18500
C650        C  0.97364009  0.19271108  0.46830864    -0.19500
C651        C  0.96010759  0.15046781  0.44911784    -0.20800
C652        C  0.95885224  0.13159318  0.42385746    -0.19300
C653        C  0.97015901  0.13552414  0.39161586     0.19900
C654        C  0.98339678  0.15874919  0.38458996     0.02000
C655        C  0.99296936  0.16268964  0.35103679    -0.14000
C656        C  0.99128703  0.14353339  0.32629552    -0.11700
C657        C  0.97980136  0.11992563  0.33391987     0.01600
C658        C  0.96857325  0.11632004  0.36636904    -0.23900
H659        H  0.01148619  0.23621336  0.42729314     0.09600
H660        H  0.01238035  0.20338803  0.38453998     0.13100
H661        H  0.96258369  0.19046244  0.49170659     0.11900
H662        H  0.95064401  0.14713787  0.47349677     0.13000
H663        H  0.94863207  0.11395465  0.42939960     0.12100
H664        H  0.00178683  0.18040825  0.34301627     0.09200
H665        H  0.99946273  0.14711411  0.30116724     0.12400
H666        H  0.95926797  0.09825115  0.37238711     0.14300
C667        C  0.99242914  0.22232812  0.04226087    -0.01200
C668        C  0.97947415  0.22037960  0.07367722    -0.09200
C669        C  0.98537351  0.20090062  0.09712560    -0.18100
C670        C  0.00429038  0.18223445  0.08961361     0.04300
C671        C  0.01707705  0.18396980  0.05744218     0.18500
C672        C  0.01158138  0.20424769  0.03464422    -0.19500
C673        C  0.03482532  0.16509469  0.04782505    -0.20800
C674        C  0.03975281  0.14420351  0.06919005    -0.19300
C675        C  0.02781720  0.14214176  0.10129728     0.19900
C676        C  0.01045659  0.16152018  0.11239054     0.02000
C677        C  0.00007711  0.15931947  0.14581128    -0.14000
C678        C  0.00577324  0.13821530  0.16666459    -0.11700
C679        C  0.02184656  0.11842651  0.15502416     0.01600
C680        C  0.03303542  0.12072551  0.12233493    -0.23900
H681        H  0.96413210  0.23358985  0.07978228     0.09600
H682        H  0.97417886  0.20044866  0.12036788     0.13100
H683        H  0.02193772  0.20569326  0.01063327     0.11900
H684        H  0.04451478  0.16617602  0.02325851     0.13000
H685        H  0.05314609  0.12961687  0.06060073     0.12100
H686        H  0.98757785  0.17366582  0.15665973     0.09200
H687        H  0.99695624  0.13713764  0.19181134     0.12400
H688        H  0.04568530  0.10571412  0.11305786     0.14300
C689        C  0.98232260  0.28119040  0.05563287    -0.01200
C690        C  0.96056363  0.28891168  0.07376620    -0.09200
C691        C  0.96082562  0.31126203  0.09342084    -0.18100
C692        C  0.98282840  0.32705094  0.09450032     0.04300
C693        C  0.00557392  0.31776495  0.07868969     0.18500
C694        C  0.00517637  0.29480670  0.05975539    -0.19500
C695        C  0.02805683  0.33232108  0.07989903    -0.20800
C696        C  0.02826418  0.35628314  0.09572635    -0.19300
C697        C  0.00587865  0.36650287  0.11016479     0.19900
C698        C  0.98280498  0.35205376  0.10955052     0.02000
C699        C  0.96044714  0.36364793  0.12287147    -0.14000
C700        C  0.96108263  0.38814318  0.13714406    -0.11700
C701        C  0.98396156  0.40209702  0.13888339     0.01600
C702        C  0.00632057  0.39117766  0.12500598    -0.23900
H703        H  0.94264454  0.27878295  0.07036591     0.09600
H704        H  0.94315337  0.31626109  0.10606313     0.13100
H705        H  0.02191767  0.28904326  0.04511014     0.11900
H706        H  0.04549442  0.32532013  0.06799744     0.13000
H707        H  0.04594087  0.36714799  0.09601100     0.12100
H708        H  0.94202099  0.35441576  0.12238756     0.09200
H709        H  0.94344656  0.39603060  0.14732395     0.12400
H710        H  0.02413388  0.40181632  0.12586292     0.14300
C711        C  0.01744876  0.89801096  0.15286801    -0.01200
C712        C  0.03538296  0.90009622  0.12620206    -0.09200
C713        C  0.03550453  0.88264984  0.09907621    -0.18100
C714        C  0.01755839  0.86240433  0.09768578     0.04300
C715        C  0.99945697  0.86031190  0.12488624     0.18500
C716        C  0.99952137  0.87803235  0.15195379    -0.19500
C717        C  0.98150056  0.84042185  0.12511181    -0.20800
C718        C  0.98160607  0.82200615  0.09941060    -0.19300
C719        C  0.99950044  0.82321323  0.07270930     0.19900
C720        C  0.01734078  0.84376478  0.07086150     0.02000
C721        C  0.03465225  0.84423674  0.04279122    -0.14000
C722        C  0.03547677  0.82406828  0.01922061    -0.11700
C723        C  0.01887927  0.80328415  0.02270151     0.01600
C724        C  0.00045628  0.80327059  0.04870585    -0.23900
H725        H  0.04936599  0.91541565  0.12610924     0.09600
H726        H  0.04999668  0.88547925  0.07973005     0.13100
H727        H  0.98541068  0.87629264  0.17229684     0.11900
H728        H  0.96757582  0.83881105  0.14568579     0.13000
H729        H  0.96787683  0.80644921  0.10074991     0.12100
H730        H  0.04832115  0.85943212  0.03896154     0.09200
H731        H  0.04998230  0.82403151  0.99929945     0.12400
H732        H  0.98780554  0.78687713  0.05135442     0.14300
C733        C  0.97572990  0.89402494  0.33526967    -0.01200
C734        C  0.98816789  0.87241359  0.32150840    -0.09200
C735        C  0.99275393  0.85054506  0.34160528    -0.18100
C736        C  0.98493897  0.84944606  0.37636981     0.04300
C737        C  0.97068153  0.87057740  0.38947370     0.18500
C738        C  0.96649789  0.89260231  0.36913834    -0.19500
C739        C  0.96110383  0.86981322  0.42306286    -0.20800
C740        C  0.96583624  0.84876084  0.44419907    -0.19300
C741        C  0.98115411  0.82836986  0.43280672     0.19900
C742        C  0.99108748  0.82844650  0.39879683     0.02000
C743        C  0.00773367  0.80815420  0.38937187    -0.14000
C744        C  0.01502382  0.78931419  0.41314639    -0.11700
C745        C  0.00548052  0.78950846  0.44683655     0.01600
C746        C  0.98760663  0.80853833  0.45584193    -0.23900
H747        H  0.99514556  0.87264696  0.29532570     0.09600
H748        H  0.00258489  0.83481646  0.32927625     0.13100
H749        H  0.95645577  0.90892128  0.38006094     0.11900
H750        H  0.94997402  0.88570671  0.43315535     0.13000
H751        H  0.95827470  0.84890379  0.47014273     0.12100
H752        H  0.01652271  0.80710033  0.36434146     0.09200
H753        H  0.02918250  0.77524582  0.40553331     0.12400
H754        H  0.97944687  0.80858053  0.48140952     0.14300
C755        C  0.01925891  0.73029818  0.44023980    -0.01200
C756        C  0.99457406  0.72030399  0.43705201    -0.09200
C757        C  0.99052318  0.69718107  0.41955025    -0.18100
C758        C  0.01129943  0.68331587  0.40514505     0.04300
C759        C  0.03600719  0.69470391  0.40668230     0.18500
C760        C  0.03964657  0.71800530  0.42383766    -0.19500
C761        C  0.05730141  0.68208697  0.39291553    -0.20800
C762        C  0.05484160  0.65787965  0.37858597    -0.19300
C763        C  0.03101870  0.64571835  0.37758528     0.19900
C764        C  0.00877928  0.65826630  0.39040229     0.02000
C765        C  0.98524202  0.64489398  0.38847017    -0.14000
C766        C  0.98393863  0.62019631  0.37427806    -0.11700
C767        C  0.00599947  0.60798995  0.36172914     0.01600
C768        C  0.02945114  0.62096378  0.36374722    -0.23900
H769        H  0.97870809  0.72935401  0.45032335     0.09600
H770        H  0.97117026  0.69007557  0.41908061     0.13100
H771        H  0.05888085  0.72552299  0.92705152     0.11900
H772        H  0.07623073  0.69058133  0.89431804     0.13000
H773        H  0.07180971  0.64843735  0.36860070     0.12100
H774        H  0.96751342  0.65304845  0.39759534     0.09200
H775        H  0.96553736  0.61074163  0.37285312     0.12400
H776        H  0.04672014  0.61190640  0.35403443     0.14300
N777        N  0.01631298  0.77253662  0.97254255    -0.03400
C778        C  0.02513208  0.74813770  0.96826854    -0.00800
C779        C  0.03833813  0.73988279  0.49699624    -0.23700
C780        C  0.03757289  0.75957300  0.52010136    -0.23900
C781        C  0.02406308  0.77918424  0.50466455    -0.00900
H782        H  0.04683189  0.72114055  0.50106050     0.12900
H783        H  0.04570581  0.75955802  0.54561668     0.12900
N784        N  0.98492512  0.24172598  0.51746770    -0.03400
C785        C  0.97851180  0.26661356  0.52378088    -0.00800
C786        C  0.97165529  0.27909569  0.99402329    -0.23700
C787        C  0.97379274  0.26156561  0.96817576    -0.23900
C788        C  0.98203213  0.23889254  0.98301661    -0.00900
H789        H  0.96645641  0.29913865  0.99130248     0.12900
H790        H  0.96999065  0.26501226  0.94126258     0.12900
N791        N  0.74191933  0.99728542  0.98730657    -0.03400
C792        C  0.76653530  0.00320611  0.97917045    -0.00800
C793        C  0.78111616  0.00606396  0.50825661    -0.23700
C794        C  0.76513250  0.00207894  0.53553929    -0.23900
C795        C  0.74117187  0.99680366  0.52225245    -0.00900
H796        H  0.80138629  0.01022205  0.50942951     0.12900
H797        H  0.77036028  0.00339884  0.56233416     0.12900
N798        N  0.27084518  0.00817736  0.52904230    -0.03400
C799        C  0.24508182  0.00667131  0.53430661    -0.00800
C800        C  0.23207693  0.00523660  0.00340971    -0.23700
C801        C  0.25010872  0.00595472  0.97803061    -0.23900
C802        C  0.27358006  0.00759277  0.99406882    -0.00900
H803        H  0.21159344  0.00368200  0.99991803     0.12900
H804        H  0.24656888  0.00456899  0.95074569     0.12900
N805        N  0.47794516  0.72273795  0.98565227    -0.03400
C806        C  0.47277934  0.74792768  0.97939529    -0.00800
C807        C  0.46310646  0.75969121  0.50840041    -0.23700
C808        C  0.46245944  0.74134985  0.53362244    -0.23900
C809        C  0.47155247  0.71894891  0.51908098    -0.00900
H810        H  0.45807151  0.77975547  0.51125955     0.12900
H811        H  0.45626684  0.74406897  0.55989698     0.12900
N812        N  0.51854480  0.25649469  0.52819646    -0.03400
C813        C  0.52695757  0.23224779  0.53494961    -0.00800
C814        C  0.53770833  0.22130830  0.00579242    -0.23700
C815        C  0.53572110  0.23914073  0.98011307    -0.23900
C816        C  0.52425442  0.26049499  0.99441636    -0.00900
H817        H  0.54520313  0.20199167  0.00334169     0.12900
H818        H  0.54176277  0.23676640  0.95371006     0.12900
N819        N  0.22959861  0.49263440  0.52043973    -0.03400
C820        C  0.25512206  0.49475168  0.52601132    -0.00800
C821        C  0.26819533  0.49957752  0.99601184    -0.23700
C822        C  0.25023654  0.50032777  0.97054901    -0.23900
C823        C  0.22685202  0.49603299  0.98615525    -0.00900
H824        H  0.28863705  0.50205600  0.99292558     0.12900
H825        H  0.25377637  0.50376323  0.94355274     0.12900
N826        N  0.75917719  0.50159158  0.97819815    -0.03400
C827        C  0.73471764  0.49416665  0.97181022    -0.00800
C828        C  0.72254057  0.48679146  0.50167726    -0.23700
C829        C  0.73980118  0.48981231  0.52763820    -0.23900
C830        C  0.76203484  0.49879776  0.51269895    -0.00900
H831        H  0.70293766  0.48036809  0.50430967     0.12900
H832        H  0.73661202  0.48567418  0.55454711     0.12900
O833        O  0.47179304  0.49960029  0.69852337    -0.88300
C834        C  0.46153320  0.53048541  0.79332927     0.87800
Mg835      Mg  0.46237713  0.46040266  0.68715108     1.58100
O836        O  0.52576810  0.52063994  0.77138173    -0.88000
O837        O  0.50430246  0.52638292  0.69677580    -0.75300
C838        C  0.51686078  0.39785922  0.81576367     0.92800
O839        O  0.42969792  0.48640542  0.75548753    -0.75100
O840        O  0.50049228  0.39527497  0.79192309    -0.82600
Mg841      Mg  0.44314630  0.52156500  0.72422484     1.58000
C842        C  0.57602760  0.48693309  0.83702058     0.92700
O843        O  0.45342665  0.55737744  0.69106530    -0.80900
H844        H  0.55480318  0.52650250  0.73877549    -0.06300
C845        C  0.49207042  0.46545195  0.82870421     0.87700
O846        O  0.50499653  0.44961433  0.69245129    -0.75400
O847        O  0.46980758  0.53069145  0.76354225    -0.88200
O848        O  0.56103984  0.50628046  0.83560718    -0.81000
C849        C  0.51353146  0.57575851  0.82606265     0.92900
C850        C  0.46669287  0.57776821  0.69446564     0.92700
Mg851      Mg  0.53929820  0.45425384  0.78628084     1.58000
O852        O  0.53026820  0.41817127  0.81867646    -0.80900
O853        O  0.55170190  0.48965957  0.75531279    -0.75200
O854        O  0.50352809  0.57556152  0.79616281    -0.81000
O855        O  0.41371233  0.51140923  0.68542013    -0.82700
O856        O  0.47701952  0.39978867  0.71598909    -0.81000
C857        C  0.54463133  0.51304106  0.75494978     0.87100
O858        O  0.51174382  0.44473126  0.74756424    -0.88200
O859        O  0.51023316  0.47521058  0.81292432    -0.88300
O860        O  0.47775501  0.44849191  0.81525548    -0.75300
Mg861      Mg  0.50370386  0.54972137  0.74736637     1.58000
O862        O  0.52466483  0.55601503  0.83831876    -0.82700
H863        H  0.49520704  0.50207584  0.65794881    -0.06400
O864        O  0.45533367  0.45479217  0.74069597    -0.88000
H865        H  0.42600406  0.44986793  0.77315621    -0.06300
H866        H  0.53918548  0.43882573  0.71255701    -0.06400
C867        C  0.43651020  0.46292902  0.75677553     0.87100
C868        C  0.49036628  0.50907714  0.68326511     0.87700
C869        C  0.51948780  0.44395798  0.71754239     0.87700
H870        H  0.48778337  0.47209832  0.85436867    -0.06400
O871        O  0.47558369  0.52417963  0.81857345    -0.75400
Mg872      Mg  0.47784597  0.42571848  0.76457093     1.58000
H873        H  0.44165266  0.53512923  0.79790376    -0.06400
C874        C  0.40573453  0.48979895  0.67488114     0.92700
O875        O  0.45482819  0.41843744  0.67410739    -0.82700
C876        C  0.46647563  0.39898522  0.68643910     0.92800
O877        O  0.48196844  0.58055381  0.71948976    -0.82700
Mg878      Mg  0.51827630  0.51433387  0.82465864     1.58200
O879        O  0.41939634  0.46950295  0.67713919    -0.81000
O880        O  0.56963507  0.46516327  0.82492965    -0.82700
O881        O  0.52236521  0.00557516  0.70076318    -0.88300
C882        C  0.55439110  0.01629136  0.79537672     0.87800
Mg883      Mg  0.48437026  0.01743454  0.68844879     1.58100
O884        O  0.53596576  0.95270588  0.78011409    -0.88000
O885        O  0.54426244  0.96946368  0.70268238    -0.75300
C886        C  0.41588738  0.98102487  0.82417825     0.92800
O887        O  0.51292925  0.05153257  0.75394799    -0.75100
O888        O  0.41517139  0.99545397  0.79786288    -0.82600
Mg889      Mg  0.54654090  0.03329494  0.72476040     1.58000
C890        C  0.49627773  0.91030248  0.85126803     0.92700
O891        O  0.58162329  0.01858370  0.69413948    -0.80900
H892        H  0.53769935  0.92056698  0.75212325    -0.06300
C893        C  0.48669224  0.99719696  0.83348493     0.87700
O894        O  0.47001410  0.97641673  0.70009746    -0.75400
O895        O  0.55279454  0.00689831  0.76627171    -0.88200
O896        O  0.51770633  0.92192900  0.84780876    -0.81000
C897        C  0.59322841  0.96102212  0.83210917     0.92900
C898        C  0.60006499  0.00273559  0.69791342     0.92700
Mg899      Mg  0.46877711  0.94890323  0.79820471     1.58000
O900        O  0.43436279  0.96538427  0.82915787    -0.80900
O901        O  0.50199839  0.92943501  0.76914877    -0.75200
O902        O  0.59288841  0.96918085  0.80118406    -0.81000
O903        O  0.53918914  0.06274709  0.68314185    -0.82700
O904        O  0.42220466  0.01073201  0.71863692    -0.81000
C905        C  0.52592176  0.93363937  0.76685211     0.87100
O906        O  0.46299771  0.97434168  0.75564925    -0.88200
O907        O  0.49373172  0.97643267  0.82099137    -0.88300
O908        O  0.47143724  0.01235706  0.81783969    -0.75300
Mg909      Mg  0.56724811  0.96976809  0.75298489     1.58000
O910        O  0.57311079  0.95221551  0.84654731    -0.82700
H911        H  0.52224451  0.98021562  0.66229364    -0.06400
O912        O  0.47926030  0.02848429  0.74078703    -0.88000
H913        H  0.47691010  0.05997670  0.76993681    -0.06300
H914        H  0.45581083  0.94490426  0.72424033    -0.06400
C915        C  0.48899368  0.04730646  0.75503834     0.87100
C916        C  0.52950699  0.98520533  0.68735919     0.87700
C917        C  0.46241538  0.96446232  0.72676849     0.87700
H918        H  0.49420353  0.00291304  0.85814272    -0.06400
O919        O  0.54708485  0.00413709  0.82203879    -0.75400
Mg920      Mg  0.44807079  0.01135849  0.76737873     1.58000
H921        H  0.56167707  0.03558530  0.79814865    -0.06400
C922        C  0.51852398  0.07128154  0.67005954     0.92700
O923        O  0.44335044  0.02734697  0.67419575    -0.82700
C924        C  0.42277680  0.01881516  0.68764279     0.92800
O925        O  0.60024162  0.98630272  0.72216790    -0.82700
Mg926      Mg  0.53177107  0.96334185  0.83291564     1.58200
O927        O  0.49751885  0.05878560  0.67241612    -0.81000
O928        O  0.47546777  0.92020240  0.84058513    -0.82700
O929        O  0.01617830  0.99489598  0.68765056    -0.88300
C930        C  0.02783812  0.96069532  0.78014632     0.87800
Mg931      Mg  0.02707623  0.03353544  0.67644923     1.58100
O932        O  0.96382153  0.97613911  0.76437816    -0.88000
O933        O  0.98137739  0.97111750  0.68770364    -0.75300
C934        C  0.98141755  0.09865770  0.80886856     0.92800
O935        O  0.06020215  0.00492695  0.74257247    -0.75100
O936        O  0.99728010  0.10045360  0.78417724    -0.82600
Mg937      Mg  0.04447020  0.97108708  0.71120238     1.58000
C938        C  0.91935645  0.01231181  0.83447464     0.92700
O939        O  0.03147750  0.93675188  0.67877100    -0.80900
H940        H  0.93262645  0.97283906  0.73513622    -0.06300
C941        C  0.00367500  0.02874428  0.81985094     0.87700
O942        O  0.98523347  0.04631577  0.68509486    -0.75400
O943        O  0.01823719  0.96221060  0.75123079    -0.88200
O944        O  0.93324476  0.99223316  0.83145766    -0.81000
C945        C  0.97413412  0.91851119  0.81527464     0.92900
C946        C  0.01642863  0.91754114  0.68038703     0.92700
Mg947      Mg  0.95542800  0.04322496  0.78181155     1.58000
O948        O  0.96764043  0.07872465  0.81314292    -0.80900
O949        O  0.93924395  0.00907169  0.75191289    -0.75200
O950        O  0.98190369  0.91892405  0.78411147    -0.81000
O951        O  0.07436482  0.98038013  0.67118920    -0.82700
O952        O  0.01626999  0.09423239  0.70647211    -0.81000
C953        C  0.94462690  0.98528661  0.75033167     0.87100
O954        O  0.98136122  0.05147132  0.74073989    -0.88200
O955        O  0.98453617  0.01998149  0.80531759    -0.88300
O956        O  0.01800855  0.04546902  0.80569828    -0.75300
Mg957      Mg  0.98218032  0.94631873  0.73676077     1.58000
O958        O  0.96611790  0.93884461  0.83014362    -0.82700
H959        H  0.99113556  0.99529583  0.64893033    -0.06400
O960        O  0.03624395  0.03827905  0.72948955    -0.88000
H961        H  0.06640055  0.04087281  0.76078000    -0.06300
H962        H  0.95267529  0.05885540  0.70827198    -0.06400
C963        C  0.05484375  0.02874364  0.74456374     0.87100
C964        C  0.99633289  0.98730371  0.67358342     0.87700
C965        C  0.97228025  0.05270621  0.71145848     0.87700
H966        H  0.00868794  0.02154521  0.84501312    -0.06400
O967        O  0.01579027  0.96783108  0.80684563    -0.75400
Mg968      Mg  0.01677241  0.06856714  0.75506849     1.58000
H969        H  0.04732550  0.95399120  0.78261613    -0.06400
C970        C  0.08278972  0.00218758  0.66172325     0.92700
O971        O  0.03590338  0.07512026  0.66270758    -0.82700
C972        C  0.02524475  0.09478213  0.67596462     0.92800
O973        O  0.00006797  0.91513540  0.70443166    -0.82700
Mg974      Mg  0.97452259  0.98089819  0.81693531     1.58200
O975        O  0.06929372  0.02254925  0.66466244    -0.81000
O976        O  0.92650796  0.03403729  0.82298856    -0.82700
O977        O  0.98084361  0.49225548  0.68992355    -0.88300
C978        C  0.94703991  0.47892500  0.78296089     0.87800
Mg979      Mg  0.01876403  0.47973295  0.67830616     1.58100
O980        O  0.96592190  0.54284613  0.77114694    -0.88000
O981        O  0.95921531  0.52848678  0.69330718    -0.75300
C982        C  0.08420599  0.51233160  0.81702469     0.92800
O983        O  0.98833224  0.44415825  0.74085003    -0.75100
O984        O  0.08544258  0.49764060  0.79104760    -0.82600
Mg985      Mg  0.95577663  0.46412596  0.71169620     1.58000
C986        C  0.00491163  0.58248227  0.84457753     0.92700
O987        O  0.92192949  0.48049743  0.68082918    -0.80900
H988        H  0.96478281  0.57559047  0.74424343    -0.06300
C989        C  0.01356691  0.49639962  0.82342528     0.87700
O990        O  0.03394395  0.52006369  0.69126626    -0.75400
O991        O  0.94910523  0.48920630  0.75441230    -0.88200
O992        O  0.98347695  0.57112699  0.84041275    -0.81000
C993        C  0.90813538  0.53438702  0.82172881     0.92900
C994        C  0.90357001  0.49637054  0.68488371     0.92700
Mg995      Mg  0.03268490  0.54532471  0.78999045     1.58000
O996        O  0.06590968  0.52824292  0.82102958    -0.80900
O997        O  0.00026314  0.56581021  0.76094346    -0.75200
O998        O  0.90811162  0.52632233  0.79073755    -0.81000
O999        O  0.96335381  0.43601202  0.66875118    -0.82700
O1000       O  0.08076969  0.48312605  0.71102009    -0.81000
C1001       C  0.97629494  0.56205626  0.75858284     0.87100
O1002       O  0.03933302  0.52060826  0.74706557    -0.88200
O1003       O  0.00720596  0.51750903  0.81135502    -0.88300
O1004       O  0.02876873  0.48124258  0.80775968    -0.75300
Mg1005     Mg  0.93503745  0.52680373  0.74285964     1.58000
O1006       O  0.92858255  0.54211963  0.83611977    -0.82700
H1007       H  0.98226339  0.51910947  0.65320113    -0.06400
O1008       O  0.02246820  0.46724677  0.73016036    -0.88000
H1009       H  0.02391873  0.43466370  0.75734542    -0.06300
H1010       H  0.04840178  0.55052673  0.71718456    -0.06400
C1011       C  0.01227231  0.44803366  0.74292988     0.87100
C1012       C  0.97428892  0.51322494  0.67761219     0.87700
C1013       C  0.04112516  0.53114064  0.71865655     0.87700
H1014       H  0.00537599  0.49033506  0.84762854    -0.06400
O1015       O  0.95394169  0.49025277  0.81032235    -0.75400
Mg1016     Mg  0.05330554  0.48294624  0.75846510     1.58000
H1017       H  0.93965783  0.45958608  0.78462318    -0.06400
C1018       C  0.98431691  0.42731305  0.65670523     0.92700
O1019       O  0.05936504  0.46843069  0.66578845    -0.82700
C1020       C  0.08021662  0.47500185  0.68008340     0.92800
O1021       O  0.90274901  0.51162564  0.71035473    -0.82700
Mg1022     Mg  0.96942611  0.53057138  0.82318796     1.58200
O1023       O  0.00539367  0.43930496  0.66065751    -0.81000
O1024       O  0.02568571  0.57298437  0.83316002    -0.82700
C1025       C  0.78529450  0.50324371  0.53303196    -0.01200
C1026       C  0.78378529  0.51964999  0.56127661    -0.09200
C1027       C  0.80343490  0.52054265  0.58526127    -0.18100
C1028       C  0.82509860  0.50438684  0.58214147     0.04300
C1029       C  0.82695829  0.48842194  0.55259356     0.18500
C1030       C  0.80720435  0.48821662  0.52812295    -0.19500
C1031       C  0.84795089  0.47196521  0.54848702    -0.20800
C1032       C  0.86680167  0.47043972  0.57357320    -0.19300
C1033       C  0.86518559  0.48542659  0.60332701     0.19900
C1034       C  0.84449429  0.50288464  0.60781459     0.02000
C1035       C  0.84383813  0.51772349  0.63816830    -0.14000
C1036       C  0.86273209  0.51514640  0.66308802    -0.11700
C1037       C  0.88300409  0.49779495  0.65881492     0.01600
C1038       C  0.88411790  0.48299405  0.62873525    -0.23900
H1039       H  0.76681118  0.53124594  0.56540914     0.09600
H1040       H  0.80058104  0.53343410  0.60649491     0.13100
H1041       H  0.80811281  0.47520708  0.50642430     0.11900
H1042       H  0.84954532  0.45979770  0.52602354     0.13000
H1043       H  0.88261030  0.45721780  0.56985765     0.12100
H1044       H  0.82903395  0.53153765  0.64354968     0.09200
H1045       H  0.86146121  0.52703479  0.68582432     0.12400
H1046       H  0.89984018  0.46967642  0.62490546     0.14300
C1047       C  0.77843222  0.50981636  0.95375801    -0.01200
C1048       C  0.79545378  0.52965116  0.96194132    -0.09200
C1049       C  0.81566902  0.53607170  0.93997015    -0.18100
C1050       C  0.81942338  0.52297784  0.90855846     0.04300
C1051       C  0.80128514  0.50383377  0.89947950     0.18500
C1052       C  0.78123059  0.49734550  0.92208623    -0.19500
C1053       C  0.80358513  0.49084155  0.86819781    -0.20800
C1054       C  0.82393523  0.49588466  0.84611092    -0.19300
C1055       C  0.84274852  0.51378930  0.85491865     0.19900
C1056       C  0.84070143  0.52778048  0.88614686     0.02000
C1057       C  0.86051139  0.54528171  0.89403915    -0.14000
C1058       C  0.88186187  0.54794775  0.87258706    -0.11700
C1059       C  0.88407887  0.53369768  0.84220862     0.01600
C1060       C  0.86406297  0.51712025  0.83316283    -0.23900
H1061       H  0.79323532  0.54019365  0.98566959     0.09600
H1062       H  0.82805569  0.55132782  0.94835526     0.13100
H1063       H  0.76831550  0.48189139  0.91551702     0.11900
H1064       H  0.78969463  0.47642891  0.86092718     0.13000
H1065       H  0.82529442  0.48522281  0.82230194     0.12100
H1066       H  0.86045688  0.55665736  0.91712096     0.09200
H1067       H  0.89694903  0.56096820  0.88015910     0.12400
H1068       H  0.86561517  0.50582356  0.80988847     0.14300
C1069       C  0.60169235  0.48969216  0.85284542    -0.01200
C1070       C  0.61155047  0.51389541  0.86142690    -0.09200
C1071       C  0.63600418  0.51627150  0.87572835    -0.18100
C1072       C  0.65137035  0.49435865  0.88217169     0.04300
C1073       C  0.64115544  0.46992279  0.87347155     0.18500
C1074       C  0.61676180  0.46787080  0.85888624    -0.19500
C1075       C  0.65511764  0.44749469  0.87990839    -0.20800
C1076       C  0.67868366  0.44862064  0.89607554    -0.19300
C1077       C  0.68896098  0.47222793  0.90597122     0.19900
C1078       C  0.67596141  0.49556268  0.89821614     0.02000
C1079       C  0.68766683  0.51885195  0.90842162    -0.14000
C1080       C  0.70962690  0.51867203  0.92896909    -0.11700
C1081       C  0.72067551  0.49541464  0.93919900     0.01600
C1082       C  0.71120942  0.47243478  0.92593152    -0.23900
H1083       H  0.60038382  0.53111614  0.85692493     0.09600
H1084       H  0.64222430  0.53545151  0.88185962     0.13100
H1085       H  0.60936623  0.44900958  0.85256531     0.11900
H1086       H  0.64744051  0.42883551  0.87318462     0.13000
H1087       H  0.68860885  0.43081630  0.90177621     0.12100
H1088       H  0.67952587  0.53738469  0.90253187     0.09200
H1089       H  0.71646411  0.53668006  0.43969738     0.12400
H1090       H  0.71967524  0.45441482  0.93426847     0.14300
C1091       C  0.20281869  0.49568802  0.96663842    -0.01200
C1092       C  0.18271244  0.51241234  0.97453652    -0.09200
C1093       C  0.16192879  0.51488324  0.95220688    -0.18100
C1094       C  0.16093564  0.50065256  0.92124733     0.04300
C1095       C  0.18088463  0.48267469  0.91471340     0.18500
C1096       C  0.20148913  0.48045721  0.93727570    -0.19500
C1097       C  0.18067882  0.46755537  0.88512423    -0.20800
C1098       C  0.16138230  0.47037519  0.86111945    -0.19300
C1099       C  0.14204203  0.48860694  0.86595634     0.19900
C1100       C  0.14133979  0.50393642  0.89613415     0.02000
C1101       C  0.12145072  0.52226573  0.89928975    -0.14000
C1102       C  0.10318948  0.52527313  0.87344732    -0.11700
C1103       C  0.10412263  0.51012629  0.84374579     0.01600
C1104       C  0.12355412  0.49174475  0.84039978    -0.23900
H1105       H  0.18360757  0.52434505  0.99724128     0.09600
H1106       H  0.14727708  0.52842425  0.95948425     0.13100
H1107       H  0.21709924  0.46737195  0.93143749     0.11900
H1108       H  0.19577061  0.45369318  0.88026519     0.13000
H1109       H  0.16188138  0.45855290  0.83823810     0.12100
H1110       H  0.11960880  0.53470529  0.92124055     0.09200
H1111       H  0.08821550  0.53946106  0.87685839     0.12400
H1112       H  0.12438284  0.47972570  0.81769673     0.14300
C1113       C  0.10409528  0.47373369  0.65935660    -0.01200
C1114       C  0.10425752  0.45994324  0.62849143    -0.09200
C1115       C  0.12538469  0.46046891  0.60659112    -0.18100
C1116       C  0.14726347  0.47515549  0.61458951     0.04300
C1117       C  0.14744195  0.48857733  0.64639039     0.18500
C1118       C  0.12607797  0.48755344  0.66855915    -0.19500
C1119       C  0.16861741  0.50356952  0.65531720    -0.20800
C1120       C  0.18910601  0.50643478  0.63271440    -0.19300
C1121       C  0.18909042  0.49413961  0.60076336     0.19900
C1122       C  0.16854689  0.47769581  0.59165777     0.02000
C1123       C  0.16998397  0.46496620  0.55964090    -0.14000
C1124       C  0.19037043  0.46927729  0.53714024    -0.11700
C1125       C  0.20980335  0.48669783  0.54526544     0.01600
C1126       C  0.20920207  0.49871769  0.57747281    -0.23900
H1127       H  0.08767946  0.44892372  0.62078985     0.09600
H1128       H  0.12365263  0.44968657  0.58317731     0.13100
H1129       H  0.12618552  0.49839459  0.69230641     0.11900
H1130       H  0.16905362  0.51369086  0.67960178     0.13000
H1131       H  0.20491084  0.51868188  0.64006330     0.12100
H1132       H  0.15568396  0.45157783  0.55114333     0.09200
H1133       H  0.19081600  0.45902460  0.51300193     0.12400
H1134       H  0.22382904  0.51248007  0.58400041     0.14300
C1135       C  0.37980051  0.48884931  0.65974891    -0.01200
C1136       C  0.36515970  0.51142060  0.65850232    -0.09200
C1137       C  0.34139843  0.51187848  0.64272133    -0.18100
C1138       C  0.33137483  0.48968725  0.62704857     0.04300
C1139       C  0.34556401  0.46641093  0.62978683     0.18500
C1140       C  0.36950123  0.46612772  0.64630786    -0.19500
C1141       C  0.33625537  0.44389512  0.61474011    -0.20800
C1142       C  0.31410191  0.44441810  0.59499200    -0.19300
C1143       C  0.30069955  0.46744325  0.59002656     0.19900
C1144       C  0.30858093  0.49019995  0.60708184     0.02000
C1145       C  0.29433988  0.51296479  0.60139934    -0.14000
C1146       C  0.27506103  0.51372681  0.57691480    -0.11700
C1147       C  0.26857097  0.49170516  0.55865413     0.01600
C1148       C  0.28060514  0.46836197  0.56620020    -0.23900
H1149       H  0.37225135  0.52918117  0.66930383     0.09600
H1150       H  0.33174924  0.53015985  0.64255796     0.13100
H1151       H  0.38045000  0.44843322  0.64764133     0.11900
H1152       H  0.34671941  0.42597525  0.61712729     0.13000
H1153       H  0.30792543  0.42689094  0.08259558     0.12100
H1154       H  0.29849132  0.53088748  0.61388942     0.09200
H1155       H  0.26620571  0.53199355  0.57069954     0.12400
H1156       H  0.27579691  0.45143907  0.05147344     0.14300
C1157       C  0.51920560  0.09679950  0.65259981    -0.01200
C1158       C  0.54224428  0.11057876  0.65109332    -0.09200
C1159       C  0.54333884  0.13506296  0.63654997    -0.18100
C1160       C  0.52129142  0.14684876  0.62266471     0.04300
C1161       C  0.49800360  0.13274063  0.62349738     0.18500
C1162       C  0.49711265  0.10806823  0.63855426    -0.19500
C1163       C  0.47583521  0.14324586  0.60893550    -0.20800
C1164       C  0.47647841  0.16705015  0.59256629    -0.19300
C1165       C  0.49922423  0.18116002  0.59074871     0.19900
C1166       C  0.52176882  0.17166434  0.60678759     0.02000
C1167       C  0.54407384  0.18700140  0.60499519    -0.14000
C1168       C  0.54473400  0.20908647  0.58464902    -0.11700
C1169       C  0.52312141  0.21701518  0.56641806     0.01600
C1170       C  0.50004295  0.20384442  0.57102821    -0.23900
H1171       H  0.55969754  0.10249361  0.66148287     0.09600
H1172       H  0.56184456  0.14410712  0.63625405     0.13100
H1173       H  0.47916604  0.09766382  0.63933435     0.11900
H1174       H  0.45797731  0.13269302  0.60949277     0.13000
H1175       H  0.45917725  0.17422255  0.58059343     0.12100
H1176       H  0.56164455  0.18182884  0.61762279     0.09200
H1177       H  0.56278943  0.21896358  0.58104619     0.12400
H1178       H  0.48339207  0.20977674  0.55642805     0.14300
C1179       C  0.51875367  0.28354037  0.97388632    -0.01200
C1180       C  0.50082202  0.28163042  0.94757219    -0.09200
C1181       C  0.49912964  0.30054520  0.92244364    -0.18100
C1182       C  0.51604349  0.32171199  0.92235751     0.04300
C1183       C  0.53313246  0.32441541  0.95047393     0.18500
C1184       C  0.53431488  0.30531244  0.97605260    -0.19500
C1185       C  0.54954825  0.34561209  0.95206267    -0.20800
C1186       C  0.54967140  0.36395695  0.92596886    -0.19300
C1187       C  0.53376764  0.36126095  0.89730956     0.19900
C1188       C  0.51689980  0.33994113  0.89502832     0.02000
C1189       C  0.50206434  0.33733115  0.86501140    -0.14000
C1190       C  0.50314720  0.35558035  0.83899339    -0.11700
C1191       C  0.51891102  0.37719220  0.84177584     0.01600
C1192       C  0.53452951  0.37973792  0.87086880    -0.23900
H1193       H  0.48868943  0.26483763  0.94575034     0.09600
H1194       H  0.48478565  0.29765521  0.90308272     0.13100
H1195       H  0.54834071  0.30658743  0.99644523     0.11900
H1196       H  0.56251943  0.34790902  0.97349098     0.13000
H1197       H  0.56260114  0.38014111  0.92794746     0.12100
H1198       H  0.48948425  0.32135509  0.86062149     0.09200
H1199       H  0.49100628  0.35291514  0.81680302     0.12400
H1200       H  0.54691950  0.39631640  0.87328623     0.14300
C1201       C  0.50744287  0.27477633  0.55196632    -0.01200
C1202       C  0.48743868  0.29111590  0.54184161    -0.09200
C1203       C  0.47819386  0.31031637  0.56376323    -0.18100
C1204       C  0.48847180  0.31361881  0.59702431     0.04300
C1205       C  0.50779433  0.29610252  0.60780130     0.18500
C1206       C  0.51721655  0.27723095  0.58524458    -0.19500
C1207       C  0.51795267  0.29775686  0.64089719    -0.20800
C1208       C  0.50985478  0.31685201  0.66334162    -0.19300
C1209       C  0.49180665  0.33518567  0.65302913     0.19900
C1210       C  0.48067631  0.33380971  0.61981044     0.02000
C1211       C  0.46298869  0.35324501  0.61055610    -0.14000
C1212       C  0.45754487  0.37371158  0.63274105    -0.11700
C1213       C  0.46920462  0.37539396  0.66508422     0.01600
C1214       C  0.48568891  0.35551244  0.67536094    -0.23900
H1215       H  0.47884737  0.28908019  0.51678186     0.09600
H1216       H  0.46295431  0.32221998  0.55399521     0.13100
H1217       H  0.53279362  0.26487855  0.59332024     0.11900
H1218       H  0.53246782  0.28429009  0.64941863     0.13000
H1219       H  0.51834057  0.31772189  0.68865849     0.12100
H1220       H  0.45372957  0.35365673  0.58587218     0.09200
H1221       H  0.44468338  0.38868450  0.62404950     0.12400
H1222       H  0.49489706  0.35649232  0.70022457     0.14300
C1223       C  0.47993203  0.76316987  0.94893663    -0.01200
C1224       C  0.50462348  0.77341841  0.94684646    -0.09200
C1225       C  0.50937424  0.79570407  0.92764127    -0.18100
C1226       C  0.48926397  0.80867015  0.91048407     0.04300
C1227       C  0.46467505  0.79692246  0.91076403     0.18500
C1228       C  0.46038864  0.77426301  0.92949328    -0.19500
C1229       C  0.44396464  0.80887595  0.89462072    -0.20800
C1230       C  0.44669316  0.83299522  0.87986976    -0.19300
C1231       C  0.47028557  0.84564456  0.88046751     0.19900
C1232       C  0.49215463  0.83346217  0.89481933     0.02000
C1233       C  0.51561483  0.84706764  0.89376447    -0.14000
C1234       C  0.51702738  0.87196167  0.87996332    -0.11700
C1235       C  0.49515338  0.88415825  0.86687827     0.01600
C1236       C  0.47193491  0.87061791  0.86705949    -0.23900
H1237       H  0.51980814  0.76543845  0.96247072     0.09600
H1238       H  0.52859414  0.80317312  0.92843973     0.13100
H1239       H  0.44113418  0.76663892  0.93177610     0.11900
H1240       H  0.42524258  0.79993739  0.89455690     0.13000
H1241       H  0.43003944  0.84207320  0.86851037     0.12100
H1242       H  0.53318411  0.83898191  0.90346001     0.09200
H1243       H  0.53531581  0.88168120  0.87959111     0.12400
H1244       H  0.45487150  0.87950561  0.85653068     0.14300
C1245       C  0.47398845  0.69500255  0.53910277    -0.01200
C1246       C  0.45788268  0.67410604  0.53306307    -0.09200
C1247       C  0.45625748  0.65398600  0.55694058    -0.18100
C1248       C  0.47075673  0.65439377  0.58764565     0.04300
C1249       C  0.48814283  0.67508853  0.59232697     0.18500
C1250       C  0.48948084  0.69505847  0.56825709    -0.19500
C1251       C  0.50352060  0.67625846  0.62157384    -0.20800
C1252       C  0.50171658  0.65754829  0.64682148    -0.19300
C1253       C  0.48427709  0.63735585  0.64363852     0.19900
C1254       C  0.46849039  0.63537432  0.61410004     0.02000
C1255       C  0.45098119  0.61466494  0.61273627    -0.14000
C1256       C  0.44974790  0.59640662  0.63919431    -0.11700
C1257       C  0.46575246  0.59827700  0.66791919     0.01600
C1258       C  0.48272736  0.61905001  0.66995759    -0.23900
H1259       H  0.44561954  0.67397477  0.51070254     0.09600
H1260       H  0.44310035  0.63870055  0.55107528     0.13100
H1261       H  0.50189093  0.71138241  0.57289039     0.11900
H1262       H  0.51690678  0.69191809  0.62510745     0.13000
H1263       H  0.51386949  0.65905319  0.66923258     0.12100
H1264       H  0.43807656  0.61201919  0.59150483     0.09200
H1265       H  0.43648029  0.58056299  0.63686966     0.12400
H1266       H  0.49531164  0.62079497  0.69192198     0.14300
C1267       C  0.48634340  0.70351563  0.96137861    -0.01200
C1268       C  0.50497777  0.68539158  0.97047038    -0.09200
C1269       C  0.51127321  0.66515246  0.94843126    -0.18100
C1270       C  0.49899900  0.66230938  0.91630906     0.04300
C1271       C  0.48056616  0.68116849  0.90684738     0.18500
C1272       C  0.47459120  0.70153664  0.92920846    -0.19500
C1273       C  0.46772272  0.67924765  0.87547928    -0.20800
C1274       C  0.47244988  0.65877178  0.85344601    -0.19300
C1275       C  0.49025101  0.63971230  0.86208520     0.19900
C1276       C  0.50396488  0.64128675  0.89351510     0.02000
C1277       C  0.52173274  0.62152059  0.90091607    -0.14000
C1278       C  0.52522171  0.60083416  0.87856737    -0.11700
C1279       C  0.51134376  0.59907707  0.84789770     0.01600
C1280       C  0.49409964  0.61884687  0.83967163    -0.23900
H1281       H  0.51458603  0.68677782  0.99496639     0.09600
H1282       H  0.52559449  0.65186826  0.95751380     0.10700
H1283       H  0.45994259  0.71534043  0.92218916     0.11900
H1284       H  0.45366177  0.69355390  0.86809402     0.13000
H1285       H  0.46193375  0.65773490  0.82954281     0.12100
H1286       H  0.53305542  0.62130335  0.92399377     0.09200
H1287       H  0.53871344  0.58592544  0.88563854     0.12400
H1288       H  0.48307653  0.61767628  0.81617611     0.14300
C1289       C  0.23080261  0.00652172  0.56690926    -0.01200
C1290       C  0.22094558  0.02968001  0.57941637    -0.09200
C1291       C  0.19862939  0.02999332  0.59939447    -0.18100
C1292       C  0.18520041  0.00699397  0.60666100     0.04300
C1293       C  0.19668430  0.98342787  0.59633582     0.18500
C1294       C  0.21938857  0.98343208  0.57701610    -0.19500
C1295       C  0.18446515  0.96005875  0.60298669    -0.20800
C1296       C  0.16042612  0.95957087  0.61822012    -0.19300
C1297       C  0.14792728  0.98244178  0.62696156     0.19900
C1298       C  0.16023665  0.00650656  0.62193416     0.02000
C1299       C  0.14650180  0.02897663  0.63100236    -0.14000
C1300       C  0.12139916  0.02757221  0.64351649    -0.11700
C1301       C  0.10922046  0.00379550  0.64777091     0.01600
C1302       C  0.12286785  0.98131759  0.63993826    -0.23900
H1303       H  0.22921259  0.04773227  0.57116191     0.09600
H1304       H  0.19158950  0.04859922  0.60703250     0.13100
H1305       H  0.22660853  0.96547662  0.06644101     0.11900
H1306       H  0.19320663  0.94204654  0.59534604     0.13000
H1307       H  0.15120988  0.94116439  0.62225058     0.12100
H1308       H  0.15448780  0.04793676  0.62826571     0.09200
H1309       H  0.11153100  0.04522416  0.65001301     0.12400
H1310       H  0.11380751  0.96276350  0.64338689     0.14300
C1311       C  0.39526194  0.98369231  0.85022504    -0.01200
C1312       C  0.39536352  0.96905797  0.88046157    -0.09200
C1313       C  0.37698234  0.97318570  0.90608143    -0.18100
C1314       C  0.35788132  0.99230806  0.90234079     0.04300
C1315       C  0.35797956  0.00713488  0.87165177     0.18500
C1316       C  0.37633015  0.00258898  0.84606405    -0.19500
C1317       C  0.33987046  0.02660289  0.86665248    -0.20800
C1318       C  0.32129764  0.03148752  0.89129362    -0.19300
C1319       C  0.32023535  0.01685753  0.92139370     0.19900
C1320       C  0.33857235  0.99717303  0.92763585     0.02000
C1321       C  0.33629917  0.98289219  0.95850071    -0.14000
C1322       C  0.31599128  0.98723072  0.98127635    -0.11700
C1323       C  0.29766051  0.00609026  0.97420375     0.01600
C1324       C  0.30026473  0.02121844  0.94470565    -0.23900
H1325       H  0.40992268  0.95454800  0.88458856     0.09600
H1326       H  0.37838958  0.96126863  0.92865197     0.13100
H1327       H  0.37610404  0.01428585  0.82298935     0.11900
H1328       H  0.33999095  0.03807916  0.84339398     0.13000
H1329       H  0.30737787  0.04653214  0.88649356     0.12100
H1330       H  0.34940615  0.96769996  0.96521880     0.09200
H1331       H  0.31398403  0.97507665  0.00369685     0.12400
H1332       H  0.28595898  0.03577656  0.93918666     0.14300
C1333       C  0.39919072  0.01763789  0.66622518    -0.01200
C1334       C  0.37764700  0.00364818  0.67697028    -0.09200
C1335       C  0.35592370  0.00167406  0.65603660    -0.18100
C1336       C  0.35492216  0.01384822  0.62352352     0.04300
C1337       C  0.37687369  0.02787999  0.61276449     0.18500
C1338       C  0.39857761  0.02952543  0.63389359    -0.19500
C1339       C  0.37711858  0.04030868  0.58090308    -0.20800
C1340       C  0.35586865  0.03953990  0.55961516    -0.19300
C1341       C  0.33389669  0.02603196  0.56937042     0.19900
C1342       C  0.33308889  0.01271648  0.60124293     0.02000
C1343       C  0.31052221  0.99883581  0.60911051    -0.14000
C1344       C  0.29009513  0.99763023  0.58583380    -0.11700
C1345       C  0.29108399  0.01071026  0.55432526     0.01600
C1346       C  0.31284536  0.02554441  0.54702602    -0.23900
H1347       H  0.37765364  0.99390031  0.70154287     0.09600
H1348       H  0.34018890  0.99054805  0.66601767     0.13100
H1349       H  0.41510056  0.04024870  0.62504033     0.11900
H1350       H  0.39383736  0.05088667  0.57245778     0.13000
H1351       H  0.35669838  0.04948404  0.53515822     0.12100
H1352       H  0.30835000  0.98820524  0.63270403     0.09200
H1353       H  0.27382264  0.98575956  0.59222257     0.12400
H1354       H  0.31361153  0.03656801  0.52345364     0.14300
C1355       C  0.77852631  0.00355560  0.94501830    -0.01200
C1356       C  0.78846756  0.98063866  0.93198188    -0.09200
C1357       C  0.80926112  0.98100098  0.90939221    -0.18100
C1358       C  0.82090897  0.00447803  0.89978930     0.04300
C1359       C  0.80866661  0.02768204  0.90991537     0.18500
C1360       C  0.78761100  0.02698711  0.93232352    -0.19500
C1361       C  0.81870561  0.05143652  0.89983663    -0.20800
C1362       C  0.84152418  0.05270563  0.88151116    -0.19300
C1363       C  0.85510850  0.03028607  0.87353229     0.19900
C1364       C  0.84489135  0.00581361  0.88222213     0.02000
C1365       C  0.85981948  0.98383995  0.87471549    -0.14000
C1366       C  0.88394745  0.98609154  0.85963840    -0.11700
C1367       C  0.89395823  0.01022428  0.85114466     0.01600
C1368       C  0.87923442  0.03223834  0.85781250    -0.23900
H1369       H  0.78171533  0.96238313  0.94179927     0.09600
H1370       H  0.81656920  0.96258634  0.90132349     0.13100
H1371       H  0.77998980  0.04468374  0.44282184     0.11900
H1372       H  0.80933446  0.06915051  0.40730958     0.13000
H1373       H  0.84910627  0.07142063  0.87471277     0.12100
H1374       H  0.85366710  0.96463127  0.88092205     0.09200
H1375       H  0.89479092  0.96874994  0.85455596     0.12400
H1376       H  0.88675086  0.05105797  0.85135612     0.14300
C1377       C  0.71853244  0.99363112  0.54487476    -0.01200
C1378       C  0.72160108  0.98044205  0.57595678    -0.09200
C1379       C  0.70287187  0.98134638  0.60138443    -0.18100
C1380       C  0.68013033  0.99558868  0.59661608     0.04300
C1381       C  0.67640638  0.00786381  0.56431362     0.18500
C1382       C  0.69559987  0.00686033  0.53882880    -0.19500
C1383       C  0.65383338  0.02159515  0.55805574    -0.20800
C1384       C  0.63495107  0.02355152  0.58322444    -0.19300
C1385       C  0.63828147  0.01210157  0.61548519     0.19900
C1386       C  0.66101599  0.99809981  0.62273945     0.02000
C1387       C  0.66367553  0.98733496  0.65592029    -0.14000
C1388       C  0.64419247  0.98949399  0.68030442    -0.11700
C1389       C  0.62149149  0.00268254  0.67281556     0.01600
C1390       C  0.61886781  0.01433753  0.64045875    -0.23900
H1391       H  0.73911447  0.96995197  0.58111489     0.09600
H1392       H  0.70697730  0.97090247  0.62462348     0.13100
H1393       H  0.69321338  0.01746396  0.51506714     0.11900
H1394       H  0.65076242  0.03092775  0.53350988     0.13000
H1395       H  0.61766095  0.03422886  0.57746985     0.12100
H1396       H  0.68052477  0.97700611  0.66389168     0.09200
H1397       H  0.64687747  0.98054263  0.70516102     0.12400
H1398       H  0.60138629  0.02458581  0.63431302     0.14300
C1399       C  0.72152825  0.99142260  0.96354636    -0.01200
C1400       C  0.71781012  0.00656151  0.93422001    -0.09200
C1401       C  0.69829807  0.00099336  0.91091022    -0.18100
C1402       C  0.68150626  0.98007291  0.91639488     0.04300
C1403       C  0.68495868  0.96511316  0.94660034     0.18500
C1404       C  0.70509825  0.97057534  0.96939225    -0.19500
C1405       C  0.66795870  0.94511898  0.95421435    -0.20800
C1406       C  0.64701066  0.94028377  0.93316405    -0.19300
C1407       C  0.64308809  0.95460947  0.90316774     0.19900
C1408       C  0.66090937  0.97399663  0.89364581     0.02000
C1409       C  0.65729558  0.98646962  0.86178405    -0.14000
C1410       C  0.63601940  0.98114018  0.84139690    -0.11700
C1411       C  0.61735562  0.96348037  0.85206932     0.01600
C1412       C  0.62130674  0.94990279  0.88279681    -0.23900
H1413       H  0.72985832  0.02310916  0.92957644     0.09600
H1414       H  0.69636523  0.01385438  0.88935888     0.13100
H1415       H  0.70789793  0.95861708  0.49181465     0.11900
H1416       H  0.67046269  0.93360223  0.97716958     0.13000
H1417       H  0.63378064  0.92518720  0.94039599     0.12100
H1418       H  0.67062800  0.00042576  0.85188845     0.09200
H1419       H  0.63373460  0.99170388  0.81761087     0.12400
H1420       H  0.60730207  0.93581948  0.89104760     0.14300
C1421       C  0.98675342  0.21579627  0.96213733    -0.01200
C1422       C  0.00114693  0.21861355  0.93209330    -0.09200
C1423       C  0.00105861  0.19971382  0.90701634    -0.18100
C1424       C  0.98622040  0.17730283  0.91115158     0.04300
C1425       C  0.97359944  0.17334995  0.94313116     0.18500
C1426       C  0.97379367  0.19272344  0.96832154    -0.19500
C1427       C  0.96025024  0.15047754  0.94914288    -0.20800
C1428       C  0.95898593  0.13159964  0.92388600    -0.19300
C1429       C  0.97029295  0.13552070  0.89164188     0.19900
C1430       C  0.98354876  0.15873564  0.88461566     0.02000
C1431       C  0.99312928  0.16266406  0.85106404    -0.14000
C1432       C  0.99142146  0.14351297  0.82631816    -0.11700
C1433       C  0.97990346  0.11991898  0.83393368     0.01600
C1434       C  0.96868360  0.11631962  0.86639028    -0.23900
H1435       H  0.01167307  0.23619397  0.92730147     0.09600
H1436       H  0.01255194  0.20336328  0.88455949     0.13100
H1437       H  0.96273232  0.19048353  0.99171672     0.11900
H1438       H  0.95078376  0.14715554  0.97352174     0.13000
H1439       H  0.94875504  0.11396803  0.92943119     0.12100
H1440       H  0.00196908  0.18037215  0.84304502     0.09200
H1441       H  0.99959888  0.14708880  0.80118975     0.12400
H1442       H  0.95935934  0.09826024  0.87240640     0.14300
C1443       C  0.99235750  0.22234486  0.54222647    -0.01200
C1444       C  0.97943175  0.22038855  0.57366349    -0.09200
C1445       C  0.98536956  0.20091972  0.59710891    -0.18100
C1446       C  0.00429928  0.18227169  0.58957731     0.04300
C1447       C  0.01704950  0.18400477  0.55738010     0.18500
C1448       C  0.01151554  0.20427462  0.53458118    -0.19500
C1449       C  0.03479379  0.16513120  0.54773949    -0.20800
C1450       C  0.03974006  0.14423850  0.56909886    -0.19300
C1451       C  0.02783687  0.14217935  0.60122962     0.19900
C1452       C  0.01050173  0.16156923  0.61235611     0.02000
C1453       C  0.00018093  0.15939185  0.64581117    -0.14000
C1454       C  0.00587858  0.13828181  0.66665344    -0.11700
C1455       C  0.02189568  0.11846199  0.65496777     0.01600
C1456       C  0.03305438  0.12075339  0.62225572    -0.23900
H1457       H  0.96408105  0.23358468  0.57978712     0.09600
H1458       H  0.97418920  0.20045496  0.62036366     0.13100
H1459       H  0.02184354  0.20571946  0.51054812     0.11900
H1460       H  0.04445792  0.16620983  0.52315445     0.13000
H1461       H  0.05312022  0.12964778  0.56048545     0.12100
H1462       H  0.98772531  0.17376335  0.65669386     0.09200
H1463       H  0.99709968  0.13722114  0.69182455     0.12400
H1464       H  0.04567283  0.10572555  0.61294831     0.14300
C1465       C  0.98217361  0.28119954  0.55558635    -0.01200
C1466       C  0.96042592  0.28895757  0.57371396    -0.09200
C1467       C  0.96072108  0.31130850  0.59336307    -0.18100
C1468       C  0.98275027  0.32705965  0.59445011     0.04300
C1469       C  0.00548315  0.31773702  0.57864528     0.18500
C1470       C  0.00504917  0.29478085  0.55970467    -0.19500
C1471       C  0.02799121  0.33225395  0.57987382    -0.20800
C1472       C  0.02823538  0.35621316  0.59571171    -0.19300
C1473       C  0.00586178  0.36647103  0.61013747     0.19900
C1474       C  0.98276477  0.35206004  0.60950574     0.02000
C1475       C  0.96042096  0.36368812  0.62281446    -0.14000
C1476       C  0.96108915  0.38818143  0.63708539    -0.11700
C1477       C  0.98398757  0.40210159  0.63883872     0.01600
C1478       C  0.00633712  0.39114639  0.62498076    -0.23900
H1479       H  0.94249215  0.27885383  0.57031770     0.09600
H1480       H  0.94305552  0.31633440  0.60600105     0.13100
H1481       H  0.02178224  0.28898902  0.54506288     0.11900
H1482       H  0.04542063  0.32522423  0.56798080     0.13000
H1483       H  0.04593058  0.36704660  0.59601167     0.12100
H1484       H  0.94198068  0.35448708  0.62231947     0.09200
H1485       H  0.94346014  0.39609429  0.64725264     0.12400
H1486       H  0.02416584  0.40175718  0.62585202     0.14300
C1487       C  0.01738491  0.89803029  0.65284488    -0.01200
C1488       C  0.03523862  0.90016935  0.62609101    -0.09200
C1489       C  0.03533955  0.88272027  0.59897236    -0.18100
C1490       C  0.01745586  0.86241580  0.59768117     0.04300
C1491       C  0.99942088  0.86028296  0.62495482     0.18500
C1492       C  0.99950479  0.87800738  0.65201474    -0.19500
C1493       C  0.98151485  0.84034762  0.62526226    -0.20800
C1494       C  0.98161159  0.82192450  0.59957139    -0.19300
C1495       C  0.99945320  0.82316384  0.57280940     0.19900
C1496       C  0.01724030  0.84375836  0.57088382     0.02000
C1497       C  0.03451289  0.84425075  0.54277191    -0.14000
C1498       C  0.03534940  0.82407125  0.51922507    -0.11700
C1499       C  0.01880372  0.80325442  0.52277420     0.01600
C1500       C  0.00041733  0.80321125  0.54882402    -0.23900
H1501       H  0.04917390  0.91553210  0.62592387     0.09600
H1502       H  0.04976708  0.88559778  0.57955206     0.13100
H1503       H  0.98545035  0.87623190  0.67242269     0.11900
H1504       H  0.96763833  0.83870832  0.64589095     0.13000
H1505       H  0.96792356  0.80633339  0.60097087     0.12100
H1506       H  0.04814893  0.85946870  0.53889202     0.09200
H1507       H  0.04982757  0.82405323  0.49926780     0.12400
H1508       H  0.98780825  0.78678948  0.55152226     0.14300
C1509       C  0.97569091  0.89403218  0.83524916    -0.01200
C1510       C  0.98807820  0.87240097  0.82146007    -0.09200
C1511       C  0.99267079  0.85053217  0.84155389    -0.18100
C1512       C  0.98491085  0.84945294  0.87634025     0.04300
C1513       C  0.97067894  0.87059339  0.88946632     0.18500
C1514       C  0.96649511  0.89262172  0.86913714    -0.19500
C1515       C  0.96112679  0.86983258  0.92306886    -0.20800
C1516       C  0.96585848  0.84877262  0.94419263    -0.19300
C1517       C  0.98116586  0.82837965  0.93278068     0.19900
C1518       C  0.99108457  0.82846032  0.89876405     0.02000
C1519       C  0.00774914  0.80818479  0.88933095    -0.14000
C1520       C  0.01505254  0.78934382  0.91309800    -0.11700
C1521       C  0.00550322  0.78952173  0.94678457     0.01600
C1522       C  0.98762605  0.80854407  0.95580349    -0.23900
H1523       H  0.99501400  0.87261913  0.79525763     0.09600
H1524       H  0.00245867  0.83478429  0.82920604     0.13100
H1525       H  0.95648329  0.90895210  0.88007893     0.11900
H1526       H  0.95001309  0.88573136  0.93317830     0.13000
H1527       H  0.95831119  0.84891401  0.97014377     0.12100
H1528       H  0.01654488  0.80715107  0.86430298     0.09200
H1529       H  0.02922162  0.77528582  0.90548331     0.12400
H1530       H  0.97947173  0.80857779  0.98137394     0.14300
C1531       C  0.01928094  0.73030027  0.94014875    -0.01200
C1532       C  0.99458306  0.72036537  0.93679284    -0.09200
C1533       C  0.99054244  0.69724573  0.91926744    -0.18100
C1534       C  0.01134043  0.68331760  0.90502265     0.04300
C1535       C  0.03606850  0.69464534  0.90672810     0.18500
C1536       C  0.03969615  0.71795144  0.92387904    -0.19500
C1537       C  0.05739026  0.68195844  0.89315275    -0.20800
C1538       C  0.05493652  0.65773349  0.87887297    -0.19300
C1539       C  0.03108982  0.64562826  0.87771212     0.19900
C1540       C  0.00882266  0.65825641  0.89030312     0.02000
C1541       C  0.98525996  0.64494621  0.88818742    -0.14000
C1542       C  0.98396253  0.62022421  0.87406344    -0.11700
C1543       C  0.00605313  0.60793022  0.86175978     0.01600
C1544       C  0.02952704  0.62084932  0.86394214    -0.23900
H1545       H  0.97868972  0.72945645  0.94995323     0.09600
H1546       H  0.97117496  0.69018390  0.91867001     0.13100
H1547       H  0.05882415  0.72562391  0.42688790     0.11900
H1548       H  0.07612550  0.69075597  0.39395133     0.13000
H1549       H  0.07192663  0.64823328  0.86905494     0.12100
H1550       H  0.96750660  0.65317164  0.89711186     0.09200
H1551       H  0.96554184  0.61082153  0.87248946     0.12400
H1552       H  0.04681961  0.61172820  0.85441361     0.14300
loop_ 
_geom_bond_atom_site_label_1 
_geom_bond_atom_site_label_2 
_geom_bond_distance 
_geom_bond_site_symmetry_2 
_ccdc_geom_bond_type 
N1            C2   1.360       .  A
N1          C781   1.360       .  A
N1          C745   1.451       .  S
C2          C755   1.470       .  S
C2          C779   1.382       .  A
C3            C4   1.366   1_556  A
C3          C778   1.382       .  A
C3            H6   1.083   1_556  S
C4            C5   1.378       .  A
C4            H7   1.082       .  S
C5          N777   1.360   1_554  A
C5          C723   1.465       .  S
N8            C9   1.360       .  A
N8          C788   1.361   1_554  A
N8          C667   1.448       .  S
C9          C689   1.468       .  S
C9          C786   1.379   1_554  A
C10          C11   1.364       .  A
C10         C785   1.379       .  A
C10          H13   1.083       .  S
C11          C12   1.382       .  A
C11          H14   1.082       .  S
C12         N784   1.361       .  A
C12         C645   1.473       .  S
N15          C16   1.360   1_565  A
N15         C795   1.364       .  A
N15         C623   1.447       .  S
C16         C579   1.469       .  S
C16         C793   1.378       .  A
C17          C18   1.366       .  A
C17         C792   1.378   1_554  A
C17          H20   1.083       .  S
C18          C19   1.384   1_545  A
C18          H21   1.082       .  S
C19         N791   1.364   1_554  A
C19         C601   1.482       .  S
N22          C23   1.364       .  A
N22         C802   1.366   1_554  A
N22         C569   1.454       .  S
C23         C513   1.471       .  S
C23         C800   1.380       .  A
C24          C25   1.364       .  A
C24         C799   1.380       .  A
C24          H27   1.083       .  S
C25          C26   1.381       .  A
C25          H28   1.082       .  S
C26         N798   1.366       .  A
C26         C547   1.477       .  S
N29          C30   1.360       .  A
N29         C809   1.361       .  A
N29         C491   1.445       .  S
C30         C447   1.474       .  S
C30         C807   1.381       .  A
C31          C32   1.369       .  A
C31         C806   1.381   1_554  A
C31          H34   1.082       .  S
C32          C33   1.380       .  A
C32          H35   1.082       .  S
C33         N805   1.361   1_554  A
C33         C469   1.475       .  S
N36          C37   1.361       .  A
N36         C816   1.360   1_554  A
N36         C425   1.448       .  S
C37         C393   1.472       .  S
C37         C814   1.381       .  A
C38          C39   1.368       .  A
C38         C813   1.381       .  A
C38          H41   1.083       .  S
C39          C40   1.379       .  A
C39          H42   1.082       .  S
C40         N812   1.360       .  A
C40         C403   1.469       .  S
N43          C44   1.357       .  A
N43         C823   1.359   1_554  A
N43         C349   1.448       .  S
C44         C371   1.463       .  S
C44         C821   1.380   1_554  A
C45          C46   1.368       .  A
C45         C820   1.380       .  A
C45          H48   1.083       .  S
C46          C47   1.382       .  A
C46          H49   1.082       .  S
C47         N819   1.359       .  A
C47         C315   1.470       .  S
N50          C51   1.360       .  A
N50         C830   1.361       .  A
N50         C271   1.448       .  S
C51         C305   1.470       .  S
C51         C828   1.381       .  A
C52          C53   1.367       .  A
C52         C827   1.381   1_554  A
C52          H55   1.083       .  S
C53          C54   1.380       .  A
C53          H56   1.082       .  S
C54         N826   1.361   1_554  A
C54         C249   1.471       .  S
O57         Mg59   2.147       .  S
O57         Mg65   2.130       .  S
O57          C92   1.240       .  S
C58          H97   1.080       .  S
C58          O71   1.237       .  S
C58          O95   1.271       .  A
Mg59         O88   2.137       .  S
Mg59        O103   2.328       .  S
Mg59         O99   2.279       .  S
Mg59         O70   2.306       .  S
O60        Mg102   2.136       .  S
O60         Mg85   2.119       .  S
O60          C81   1.238       .  S
O61          C92   1.275       .  A
O61         Mg85   2.317       .  S
C62         C415   1.481       .  S
C62          O64   1.272       .  A
C62          O76   1.275       .  A
O63          C91   1.273       .  A
O63         Mg65   2.306       .  S
O64         Mg96   2.245       .  S
Mg65         O71   2.128       .  S
Mg65         O79   2.224       .  S
Mg65         O67   2.329       .  S
C66         C293   1.485       .  S
C66         O104   1.274       .  A
C66          O72   1.276       .  A
O67          C74   1.276       .  A
H68          C81   1.081       .  S
C69          H94   1.081       .  S
C69          O83   1.239       .  S
C69          O84   1.273       .  A
O70          C93   1.272       .  A
O71         Mg85   2.125       .  S
O72        Mg102   2.313       .  S
C73         C503   1.488       .  S
C73          O86   1.273       .  A
C73          O78   1.278       .  A
C74         C481   1.486       .  S
C74         O101   1.270       .  A
Mg75         O82   2.148       .  S
Mg75         O83   2.136       .  S
Mg75         O76   2.311       .  S
Mg75         O77   2.295       .  S
Mg75        O104   2.264       .  S
O77          C81   1.271       .  A
O78         Mg85   2.330       .  S
O79          C98   1.270       .  A
O80         C100   1.279       .  A
O80         Mg96   2.328       .  S
O82         Mg96   2.134       .  S
O82          C93   1.237       .  S
O83        Mg102   2.131       .  S
O84         Mg96   2.305       .  S
Mg85        O101   2.244       .  S
O86        Mg102   2.261       .  S
H87          C92   1.081       .  S
O88         Mg96   2.129       .  S
O88          C91   1.239       .  S
H89          C91   1.081       .  S
H90          C93   1.080       .  S
O95        Mg102   2.301       .  S
C98         C359   1.480       .  S
C98         O103   1.277       .  A
O99         C100   1.274       .  A
C100        C437   1.491       .  S
O105       Mg107   2.134       .  S
O105       Mg113   2.138       .  S
O105        C140   1.239   1_545  S
C106        H145   1.081       .  S
C106        O119   1.239       .  S
C106        O143   1.273       .  A
Mg107       O136   2.136       .  S
Mg107       O151   2.344       .  S
Mg107       O147   2.274       .  S
Mg107       O118   2.309   1_545  S
O108       Mg150   2.142       .  S
O108       Mg133   2.137       .  S
O108        C129   1.238       .  S
O109        C140   1.273       .  A
O109       Mg133   2.302       .  S
C110        C535   1.485       .  S
C110        O112   1.270       .  A
C110        O124   1.277       .  A
O111        C139   1.271       .  A
O111       Mg113   2.295       .  S
O112       Mg144   2.246   1_565  S
Mg113       O119   2.145       .  S
Mg113       O127   2.261       .  S
Mg113       O115   2.314       .  S
C114        C459   1.491       .  S
C114        O152   1.273       .  A
C114        O120   1.281       .  A
O115        C122   1.276       .  A
H116        C129   1.081       .  S
C117        H142   1.081   1_565  S
C117        O131   1.241       .  S
C117        O132   1.276   1_565  A
O118        C141   1.273       .  A
O119       Mg133   2.137   1_545  S
O120       Mg150   2.350       .  S
C121        C635   1.489       .  S
C121        O134   1.277       .  A
C121        O126   1.277       .  A
C122        C613   1.484       .  S
C122        O149   1.273   1_545  A
Mg123       O130   2.142       .  S
Mg123       O131   2.136       .  S
Mg123       O124   2.326       .  S
Mg123       O125   2.304       .  S
Mg123       O152   2.252       .  S
O125        C129   1.272       .  A
O126       Mg133   2.311       .  S
O127        C146   1.274       .  A
O128        C148   1.278       .  A
O128       Mg144   2.335       .  S
O130       Mg144   2.127   1_565  S
O130        C141   1.238       .  S
O131       Mg150   2.152       .  S
O132       Mg144   2.318       .  S
Mg133       O149   2.268       .  S
O134       Mg150   2.299       .  S
H135        C140   1.081       .  S
O136       Mg144   2.125       .  S
O136        C139   1.238       .  S
H137        C139   1.081       .  S
H138        C141   1.080       .  S
O143       Mg150   2.309   1_545  S
C146        C381   1.492       .  S
C146        O151   1.280       .  A
O147        C148   1.275       .  A
C148        C557   1.492       .  S
O153       Mg155   2.136   1_565  S
O153       Mg161   2.135       .  S
O153        C188   1.240   1_455  S
C154        H193   1.080       .  S
C154        O167   1.237       .  S
C154        O191   1.270       .  A
Mg155       O184   2.138       .  S
Mg155       O199   2.323       .  S
Mg155       O195   2.277       .  S
Mg155       O166   2.308   1_455  S
O156       Mg198   2.139       .  S
O156       Mg181   2.117       .  S
O156        C177   1.238       .  S
O157        C188   1.274       .  A
O157       Mg181   2.305       .  S
C158        C657   1.479       .  S
C158        O160   1.271       .  A
C158        O172   1.275       .  A
O159        C187   1.273       .  A
O159       Mg161   2.301   1_545  S
O160       Mg192   2.252   1_655  S
Mg161       O167   2.124       .  S
Mg161       O175   2.256       .  S
Mg161       O163   2.296       .  S
C162        C591   1.480       .  S
C162        O200   1.272       .  A
C162        O168   1.277   1_545  A
O163        C170   1.275       .  A
H164        C177   1.081       .  S
C165        H190   1.082       .  S
C165        O179   1.239   1_455  S
C165        O180   1.273       .  A
O166        C189   1.273       .  A
O167       Mg181   2.137   1_455  S
O168       Mg198   2.304       .  S
C169        C733   1.494       .  S
C169        O182   1.277       .  A
C169        O174   1.279       .  A
C170        C711   1.480       .  S
C170        O197   1.273       .  A
Mg171       O178   2.137       .  S
Mg171       O179   2.148       .  S
Mg171       O172   2.308       .  S
Mg171       O173   2.292       .  S
Mg171       O200   2.252       .  S
O173        C177   1.271   1_545  A
O174       Mg181   2.330       .  S
O175        C194   1.272   1_565  A
O176        C196   1.277       .  A
O176       Mg192   2.315       .  S
O178       Mg192   2.131   1_655  S
O178        C189   1.238       .  S
O179       Mg198   2.149   1_545  S
O180       Mg192   2.309       .  S
Mg181       O197   2.256   1_655  S
O182       Mg198   2.291       .  S
H183        C188   1.081       .  S
O184       Mg192   2.123       .  S
O184        C187   1.239       .  S
H185        C187   1.081       .  S
H186        C189   1.080       .  S
O191       Mg198   2.293   1_455  S
C194        C525   1.485       .  S
C194        O199   1.277       .  A
O195        C196   1.274       .  A
C196        C679   1.488       .  S
O201       Mg203   2.132   1_655  S
O201       Mg209   2.140       .  S
O201        C236   1.239       .  S
C202        H241   1.081       .  S
C202        O215   1.238       .  S
C202        O239   1.273       .  A
Mg203       O232   2.130       .  S
Mg203       O247   2.325       .  S
Mg203       O243   2.253       .  S
Mg203       O214   2.303       .  S
O204       Mg246   2.133       .  S
O204       Mg229   2.130       .  S
O204        C225   1.238       .  S
O205        C236   1.274       .  A
O205       Mg229   2.306       .  S
C206        C327   1.478       .  S
C206        O208   1.271       .  A
C206        O220   1.273       .  A
O207        C235   1.270   1_655  A
O207       Mg209   2.294       .  S
O208       Mg240   2.244       .  S
Mg209       O215   2.144       .  S
Mg209       O223   2.259       .  S
Mg209       O211   2.303       .  S
C210        C767   1.487       .  S
C210        O248   1.271       .  A
C210        O216   1.278   1_455  A
O211        C218   1.275       .  A
H212        C225   1.081       .  S
C213        H238   1.081       .  S
C213        O227   1.240       .  S
C213        O228   1.274       .  A
O214        C237   1.272       .  A
O215       Mg229   2.137       .  S
O216       Mg246   2.336       .  S
C217        C283   1.487       .  S
C217        O230   1.274       .  A
C217        O222   1.279       .  A
C218        C261   1.482       .  S
C218        O245   1.273       .  A
Mg219       O226   2.139       .  S
Mg219       O227   2.135       .  S
Mg219       O220   2.295       .  S
Mg219       O221   2.299       .  S
Mg219       O248   2.244       .  S
O221        C225   1.272   1_455  A
O222       Mg229   2.333       .  S
O223        C242   1.273       .  A
O224        C244   1.279       .  A
O224       Mg240   2.337       .  S
O226       Mg240   2.137       .  S
O226        C237   1.238       .  S
O227       Mg246   2.136   1_455  S
O228       Mg240   2.308       .  S
Mg229       O245   2.257       .  S
O230       Mg246   2.271       .  S
H231        C236   1.081       .  S
O232       Mg240   2.121       .  S
O232        C235   1.237       .  S
H233        C235   1.081       .  S
H234        C237   1.081       .  S
O239       Mg246   2.307       .  S
C242        C701   1.487       .  S
C242        O247   1.277   1_655  A
O243        C244   1.273       .  A
C244        C337   1.486       .  S
C249        C250   1.396       .  A
C249        C254   1.398       .  A
C250        C251   1.391       .  A
C250        H263   1.084       .  S
C251        C252   1.414       .  A
C251        H264   1.076       .  S
C252        C258   1.428       .  A
C252        C253   1.424       .  A
C253        C255   1.399       .  A
C253        C254   1.407       .  A
C254        H265   1.085       .  S
C255        C256   1.392       .  A
C255        H266   1.084       .  S
C256        C257   1.401       .  A
C256        H267   1.084       .  S
C257        C258   1.422       .  A
C257        C262   1.407       .  A
C258        C259   1.414       .  A
C259        C260   1.393       .  A
C259        H268   1.076       .  S
C260        C261   1.400       .  A
C260        H269   1.083       .  S
C261        C262   1.405       .  A
C262        H270   1.084       .  S
C271        C272   1.402       .  A
C271        C276   1.402       .  A
C272        C273   1.399       .  A
C272        H285   1.082       .  S
C273        C274   1.415       .  A
C273        H286   1.077       .  S
C274        C280   1.434       .  A
C274        C275   1.423       .  A
C275        C277   1.400       .  A
C275        C276   1.408       .  A
C276        H287   1.083       .  S
C277        C278   1.391       .  A
C277        H288   1.084       .  S
C278        C279   1.400       .  A
C278        H289   1.084       .  S
C279        C280   1.423       .  A
C279        C284   1.408       .  A
C280        C281   1.415       .  A
C281        C282   1.399       .  A
C281        H290   1.078       .  S
C282        C283   1.402       .  A
C282        H291   1.083       .  S
C283        C284   1.403       .  A
C284        H292   1.084       .  S
C293        C294   1.404       .  A
C293        C298   1.401       .  A
C294        C295   1.401       .  A
C294        H307   1.083       .  S
C295        C296   1.416       .  A
C295        H308   1.078       .  S
C296        C302   1.432       .  A
C296        C297   1.422       .  A
C297        C299   1.398       .  A
C297        C298   1.401       .  A
C298        H309   1.085       .  S
C299        C300   1.386       .  A
C299        H310   1.085       .  S
C300        C301   1.397       .  A
C300        H311   1.084       .  S
C301        C302   1.423       .  A
C301        C306   1.401       .  A
C302        C303   1.417       .  A
C303        C304   1.401       .  A
C303        H312   1.078       .  S
C304        C305   1.398       .  A
C304       H1089   1.083       .  S
C305        C306   1.396       .  A
C306        H314   1.086       .  S
H313       C1080   1.083       .  S
C315        C316   1.397       .  A
C315        C320   1.395       .  A
C316        C317   1.399       .  A
C316        H329   1.083       .  S
C317        C318   1.418       .  A
C317        H330   1.077       .  S
C318        C324   1.428       .  A
C318        C319   1.422       .  A
C319        C321   1.397       .  A
C319        C320   1.396       .  A
C320        H331   1.085       .  S
C321        C322   1.385       .  A
C321        H332   1.084       .  S
C322        C323   1.397       .  A
C322        H333   1.084       .  S
C323        C324   1.423       .  A
C323        C328   1.398       .  A
C324        C325   1.415       .  A
C325        C326   1.398       .  A
C325        H334   1.078       .  S
C326        C327   1.402       .  A
C326        H335   1.083       .  S
C327        C328   1.400       .  A
C328        H336   1.085       .  S
C337        C338   1.402       .  A
C337        C342   1.404       .  A
C338        C339   1.394       .  A
C338        H351   1.083       .  S
C339        C340   1.413       .  A
C339        H352   1.076       .  S
C340        C346   1.431       .  A
C340        C341   1.424       .  A
C341        C343   1.400       .  A
C341        C342   1.411       .  A
C342        H353   1.085       .  S
C343        C344   1.392       .  A
C343        H354   1.084       .  S
C344        C345   1.401       .  A
C344        H355   1.084       .  S
C345        C346   1.421       .  A
C345        C350   1.407       .  A
C346        C347   1.415       .  A
C347        C348   1.396       .  A
C347        H356   1.076       .  S
C348        C349   1.400       .  A
C348        H357   1.082       .  S
C349        C350   1.403       .  A
C350        H358   1.080       .  S
C359        C360   1.402       .  A
C359        C364   1.403       .  A
C360        C361   1.387       .  A
C360        H373   1.083       .  S
C361        C362   1.410       .  A
C361        H374   1.076       .  S
C362        C368   1.425       .  A
C362        C363   1.423       .  A
C363        C365   1.400       .  A
C363        C364   1.408       .  A
C364        H375   1.084       .  S
C365        C366   1.392       .  A
C365        H376   1.084       .  S
C366        C367   1.400       .  A
C366       H1153   1.084       .  S
C367        C368   1.422       .  A
C367        C372   1.404       .  A
C368        C369   1.415       .  A
C369        C370   1.390       .  A
C369        H378   1.076       .  S
C370        C371   1.393       .  A
C370        H379   1.084       .  S
C371        C372   1.398       .  A
C372       H1156   1.085       .  S
H377       C1142   1.084       .  S
H380       C1148   1.085       .  S
C381        C382   1.404       .  A
C381        C386   1.406       .  A
C382        C383   1.395       .  A
C382        H395   1.083       .  S
C383        C384   1.413       .  A
C383        H396   1.076       .  S
C384        C390   1.431       .  A
C384        C385   1.423       .  A
C385        C387   1.401       .  A
C385        C386   1.412       .  A
C386        H397   1.084       .  S
C387        C388   1.393       .  A
C387        H398   1.084       .  S
C388        C389   1.400       .  A
C388        H399   1.084       .  S
C389        C390   1.422       .  A
C389        C394   1.408       .  A
C390        C391   1.416       .  A
C391        C392   1.396       .  A
C391        H400   1.076       .  S
C392        C393   1.397       .  A
C392        H401   1.084       .  S
C393        C394   1.399       .  A
C394        H402   1.085       .  S
C403        C404   1.395       .  A
C403        C408   1.399       .  A
C404        C405   1.390       .  A
C404        H417   1.084       .  S
C405        C406   1.414       .  A
C405        H418   1.076       .  S
C406        C412   1.426       .  A
C406        C407   1.423       .  A
C407        C409   1.401       .  A
C407        C408   1.408       .  A
C408        H419   1.085       .  S
C409        C410   1.394       .  A
C409        H420   1.084       .  S
C410        C411   1.401       .  A
C410        H421   1.084       .  S
C411        C412   1.422       .  A
C411        C416   1.409       .  A
C412        C413   1.412       .  A
C413        C414   1.389       .  A
C413        H422   1.075       .  S
C414        C415   1.400       .  A
C414        H423   1.083       .  S
C415        C416   1.405       .  A
C416        H424   1.084       .  S
C425        C426   1.403       .  A
C425        C430   1.401       .  A
C426        C427   1.400       .  A
C426        H439   1.081       .  S
C427        C428   1.415       .  A
C427        H440   1.078       .  S
C428        C434   1.435       .  A
C428        C429   1.423       .  A
C429        C431   1.399       .  A
C429        C430   1.407       .  A
C430        H441   1.083       .  S
C431        C432   1.390       .  A
C431        H442   1.084       .  S
C432        C433   1.399       .  A
C432        H443   1.084       .  S
C433        C434   1.422       .  A
C433        C438   1.407       .  A
C434        C435   1.416       .  A
C435        C436   1.401       .  A
C435        H444   1.078       .  S
C436        C437   1.404       .  A
C436        H445   1.083       .  S
C437        C438   1.404       .  A
C438        H446   1.084       .  S
C447        C448   1.399       .  A
C447        C452   1.397       .  A
C448        C449   1.402       .  A
C448        H461   1.083       .  S
C449        C450   1.416       .  A
C449        H462   1.078       .  S
C450        C456   1.435       .  A
C450        C451   1.424       .  A
C451        C453   1.398       .  A
C451        C452   1.404       .  A
C452        H463   1.086       .  S
C453        C454   1.387       .  A
C453        H464   1.084       .  S
C454        C455   1.399       .  A
C454        H465   1.084       .  S
C455        C456   1.421       .  A
C455        C460   1.403       .  A
C456        C457   1.418       .  A
C457        C458   1.404       .  A
C457        H466   1.078       .  S
C458        C459   1.403       .  A
C458        H467   1.082       .  S
C459        C460   1.404       .  A
C460        H468   1.085       .  S
C469        C470   1.397       .  A
C469        C474   1.397       .  A
C470        C471   1.402       .  A
C470        H483   1.083       .  S
C471        C472   1.418       .  A
C471        H484   1.078       .  S
C472        C478   1.433       .  A
C472        C473   1.423       .  A
C473        C475   1.398       .  A
C473        C474   1.400       .  A
C474        H485   1.086       .  S
C475        C476   1.386       .  A
C475        H486   1.085       .  S
C476        C477   1.399       .  A
C476        H487   1.084       .  S
C477        C478   1.422       .  A
C477        C482   1.401       .  A
C478        C479   1.417       .  A
C479        C480   1.402       .  A
C479        H488   1.078       .  S
C480        C481   1.403       .  A
C480        H489   1.083       .  S
C481        C482   1.403       .  A
C482        H490   1.085       .  S
C491        C492   1.400       .  A
C491        C496   1.401       .  A
C492        C493   1.398       .  A
C492        H505   1.082       .  S
C493        C494   1.416       .  A
C493        H506   1.078       .  S
C494        C500   1.433       .  A
C494        C495   1.423       .  A
C495        C497   1.400       .  A
C495        C496   1.408       .  A
C496        H507   1.084       .  S
C497        C498   1.391       .  A
C497        H508   1.084       .  S
C498        C499   1.400       .  A
C498        H509   1.084       .  S
C499        C500   1.423       .  A
C499        C504   1.409       .  A
C500        C501   1.414       .  A
C501        C502   1.397       .  A
C501        H510   1.078       .  S
C502        C503   1.403       .  A
C502        H511   1.083       .  S
C503        C504   1.404       .  A
C504        H512   1.085       .  S
C513        C514   1.398       .  A
C513        C518   1.398   1_545  A
C514        C515   1.400       .  A
C514        H527   1.083       .  S
C515        C516   1.417       .  A
C515        H528   1.077       .  S
C516        C522   1.433       .  A
C516        C517   1.423   1_545  A
C517        C519   1.399       .  A
C517        C518   1.403       .  A
C518       H1305   1.085       .  S
C519        C520   1.388       .  A
C519        H530   1.084       .  S
C520        C521   1.399       .  A
C520        H531   1.084       .  S
C521        C522   1.422   1_565  A
C521        C526   1.404       .  A
C522        C523   1.416       .  A
C523        C524   1.400       .  A
C523        H532   1.077       .  S
C524        C525   1.402       .  A
C524        H533   1.083       .  S
C525        C526   1.403   1_545  A
C526        H534   1.085       .  S
H529       C1294   1.085       .  S
C535        C536   1.402       .  A
C535        C540   1.403   1_565  A
C536        C537   1.400       .  A
C536        H549   1.083       .  S
C537        C538   1.416       .  A
C537        H550   1.078       .  S
C538        C544   1.431       .  A
C538        C539   1.422   1_565  A
C539        C541   1.399       .  A
C539        C540   1.401       .  A
C540        H551   1.085       .  S
C541        C542   1.387       .  A
C541        H552   1.084       .  S
C542        C543   1.398       .  A
C542        H553   1.084       .  S
C543        C544   1.422   1_545  A
C543        C548   1.400       .  A
C544        C545   1.417       .  A
C545        C546   1.400       .  A
C545        H554   1.078       .  S
C546        C547   1.398   1_565  A
C546        H555   1.083       .  S
C547        C548   1.398       .  A
C548        H556   1.085       .  S
C557        C558   1.405       .  A
C557        C562   1.403       .  A
C558        C559   1.404       .  A
C558        H571   1.083   1_545  S
C559        C560   1.416       .  A
C559        H572   1.078   1_545  S
C560        C566   1.437       .  A
C560        C561   1.423       .  A
C561        C563   1.399       .  A
C561        C562   1.406       .  A
C562        H573   1.084       .  S
C563        C564   1.389       .  A
C563        H574   1.084       .  S
C564        C565   1.399       .  A
C564        H575   1.084       .  S
C565        C566   1.422       .  A
C565        C570   1.405       .  A
C566        C567   1.417   1_545  A
C567        C568   1.404       .  A
C567        H576   1.078       .  S
C568        C569   1.404   1_565  A
C568        H577   1.080       .  S
C569        C570   1.404       .  A
C570        H578   1.083       .  S
C579        C580   1.396   1_545  A
C579        C584   1.399       .  A
C580        C581   1.397       .  A
C580        H593   1.083       .  S
C581        C582   1.416   1_565  A
C581        H594   1.078       .  S
C582        C588   1.428       .  A
C582        C583   1.422       .  A
C583        C585   1.399       .  A
C583        C584   1.403       .  A
C584       H1371   1.085       .  S
C585        C586   1.390       .  A
C585       H1372   1.084       .  S
C586        C587   1.400       .  A
C586        H597   1.085       .  S
C587        C588   1.422       .  A
C587        C592   1.404       .  A
C588        C589   1.414   1_545  A
C589        C590   1.395       .  A
C589        H598   1.078       .  S
C590        C591   1.401   1_565  A
C590        H599   1.083       .  S
C591        C592   1.403       .  A
C592        H600   1.085       .  S
H595       C1360   1.086       .  S
H596       C1361   1.084       .  S
C601        C602   1.400       .  A
C601        C606   1.401   1_565  A
C602        C603   1.391       .  A
C602        H615   1.084       .  S
C603        C604   1.412       .  A
C603        H616   1.077       .  S
C604        C610   1.430       .  A
C604        C605   1.424   1_565  A
C605        C607   1.400       .  A
C605        C606   1.410       .  A
C606        H617   1.084       .  S
C607        C608   1.393       .  A
C607        H618   1.084       .  S
C608        C609   1.401       .  A
C608        H619   1.084       .  S
C609        C610   1.421   1_545  A
C609        C614   1.409       .  A
C610        C611   1.415       .  A
C611        C612   1.395       .  A
C611        H620   1.077       .  S
C612        C613   1.400   1_565  A
C612        H621   1.083       .  S
C613        C614   1.405       .  A
C614        H622   1.084       .  S
C623        C624   1.401   1_565  A
C623        C628   1.403       .  A
C624        C625   1.399       .  A
C624        H637   1.083       .  S
C625        C626   1.416   1_545  A
C625        H638   1.078       .  S
C626        C632   1.433       .  A
C626        C627   1.422       .  A
C627        C629   1.401       .  A
C627        C628   1.409       .  A
C628       H1415   1.084       .  S
C629        C630   1.393       .  A
C629        H640   1.084       .  S
C630        C631   1.400       .  A
C630        H641   1.084       .  S
C631        C632   1.423       .  A
C631        C636   1.412       .  A
C632        C633   1.413       .  A
C633        C634   1.397       .  A
C633        H642   1.078   1_565  S
C634        C635   1.403       .  A
C634        H643   1.083       .  S
C635        C636   1.405       .  A
C636        H644   1.085       .  S
H639       C1404   1.084       .  S
C645        C646   1.397   1_655  A
C645        C650   1.400       .  A
C646        C647   1.388       .  A
C646        H659   1.084       .  S
C647        C648   1.411   1_455  A
C647        H660   1.077       .  S
C648        C654   1.424       .  A
C648        C649   1.423       .  A
C649        C651   1.400       .  A
C649        C650   1.408       .  A
C650        H661   1.084       .  S
C651        C652   1.394       .  A
C651        H662   1.083       .  S
C652        C653   1.402       .  A
C652        H663   1.084       .  S
C653        C654   1.420       .  A
C653        C658   1.406       .  A
C654        C655   1.413       .  A
C655        C656   1.391       .  A
C655        H664   1.077   1_655  S
C656        C657   1.400       .  A
C656        H665   1.083       .  S
C657        C658   1.405       .  A
C658        H666   1.085       .  S
C667        C668   1.401       .  A
C667        C672   1.404   1_655  A
C668        C669   1.398       .  A
C668        H681   1.081       .  S
C669        C670   1.415   1_655  A
C669        H682   1.077       .  S
C670        C676   1.432       .  A
C670        C671   1.422       .  A
C671        C673   1.400       .  A
C671        C672   1.408       .  A
C672        H683   1.082       .  S
C673        C674   1.392       .  A
C673        H684   1.083       .  S
C674        C675   1.400       .  A
C674        H685   1.084       .  S
C675        C676   1.422       .  A
C675        C680   1.409       .  A
C676        C677   1.414       .  A
C677        C678   1.397       .  A
C677        H686   1.077   1_455  S
C678        C679   1.403       .  A
C678        H687   1.083   1_455  S
C679        C680   1.405       .  A
C680        H688   1.084       .  S
C689        C690   1.396       .  A
C689        C694   1.400   1_655  A
C690        C691   1.394       .  A
C690        H703   1.084       .  S
C691        C692   1.416       .  A
C691        H704   1.077       .  S
C692        C698   1.428       .  A
C692        C693   1.421   1_655  A
C693        C695   1.400       .  A
C693        C694   1.406       .  A
C694        H705   1.085       .  S
C695        C696   1.393       .  A
C695        H706   1.084       .  S
C696        C697   1.401       .  A
C696        H707   1.084       .  S
C697        C698   1.423   1_455  A
C697        C702   1.410       .  A
C698        C699   1.412       .  A
C699        C700   1.393       .  A
C699        H708   1.077       .  S
C700        C701   1.402       .  A
C700        H709   1.083       .  S
C701        C702   1.405   1_655  A
C702        H710   1.085       .  S
C711        C712   1.401       .  A
C711        C716   1.402   1_455  A
C712        C713   1.395       .  A
C712        H725   1.083       .  S
C713        C714   1.413       .  A
C713        H726   1.077       .  S
C714        C720   1.427       .  A
C714        C715   1.423   1_455  A
C715        C717   1.399       .  A
C715        C716   1.402       .  A
C716        H727   1.085       .  S
C717        C718   1.388       .  A
C717        H728   1.084       .  S
C718        C719   1.398       .  A
C718        H729   1.084       .  S
C719        C720   1.422   1_655  A
C719        C724   1.399   1_655  A
C720        C721   1.418       .  A
C721        C722   1.397       .  A
C721        H730   1.077       .  S
C722        C723   1.394       .  A
C722        H731   1.083   1_554  S
C723        C724   1.396       .  A
C724        H732   1.085   1_455  S
C733        C734   1.404       .  A
C733        C738   1.406       .  A
C734        C735   1.401       .  A
C734        H747   1.082       .  S
C735        C736   1.415       .  A
C735        H748   1.079   1_655  S
C736        C742   1.435       .  A
C736        C737   1.422       .  A
C737        C739   1.400       .  A
C737        C738   1.409       .  A
C738        H749   1.085       .  S
C739        C740   1.392       .  A
C739        H750   1.084       .  S
C740        C741   1.400       .  A
C740        H751   1.084       .  S
C741        C742   1.422       .  A
C741        C746   1.408       .  A
C742        C743   1.415   1_655  A
C743        C744   1.401       .  A
C743        H752   1.078       .  S
C744        C745   1.403       .  A
C744        H753   1.081       .  S
C745        C746   1.404   1_455  A
C746        H754   1.082       .  S
C755        C756   1.398   1_455  A
C755        C760   1.396       .  A
C756        C757   1.401       .  A
C756        H769   1.083       .  S
C757        C758   1.417   1_655  A
C757        H770   1.078       .  S
C758        C764   1.432       .  A
C758        C759   1.423       .  A
C759        C761   1.397       .  A
C759        C760   1.400       .  A
C760       H1547   1.085       .  S
C761        C762   1.386       .  A
C761       H1548   1.084       .  S
C762        C763   1.398       .  A
C762        H773   1.084       .  S
C763        C764   1.422       .  A
C763        C768   1.400       .  A
C764        C765   1.417   1_455  A
C765        C766   1.402       .  A
C765        H774   1.078       .  S
C766        C767   1.402   1_655  A
C766        H775   1.083       .  S
C767        C768   1.403       .  A
C768        H776   1.085       .  S
H771       C1536   1.085       .  S
H772       C1537   1.084       .  S
N777        C778   1.361       .  A
N777       C1521   1.451       .  S
C778       C1531   1.471       .  S
C779        C780   1.366       .  A
C779        H782   1.083       .  S
C780        C781   1.378       .  A
C780        H783   1.082       .  S
C781       C1499   1.464       .  S
N784        C785   1.360       .  A
N784       C1443   1.448       .  S
C785       C1465   1.468       .  S
C786        C787   1.364       .  A
C786        H789   1.083       .  S
C787        C788   1.382       .  A
C787        H790   1.082       .  S
C788       C1421   1.473       .  S
N791        C792   1.360   1_565  A
N791       C1399   1.447       .  S
C792       C1355   1.469       .  S
C793        C794   1.366       .  A
C793        H796   1.083       .  S
C794        C795   1.384   1_545  A
C794        H797   1.082       .  S
C795       C1377   1.483       .  S
N798        C799   1.364       .  A
N798       C1345   1.454       .  S
C799       C1289   1.471       .  S
C800        C801   1.364   1_554  A
C800        H803   1.083   1_554  S
C801        C802   1.381       .  A
C801        H804   1.082       .  S
C802       C1323   1.477       .  S
N805        C806   1.360       .  A
N805       C1267   1.445       .  S
C806       C1223   1.474       .  S
C807        C808   1.369       .  A
C807        H810   1.082       .  S
C808        C809   1.380       .  A
C808        H811   1.082       .  S
C809       C1245   1.475       .  S
N812        C813   1.361       .  A
N812       C1201   1.448       .  S
C813       C1169   1.472       .  S
C814        C815   1.368   1_554  A
C814        H817   1.083       .  S
C815        C816   1.379       .  A
C815        H818   1.082       .  S
C816       C1179   1.469       .  S
N819        C820   1.357       .  A
N819       C1125   1.448       .  S
C820       C1147   1.463       .  S
C821        C822   1.368       .  A
C821        H824   1.083       .  S
C822        C823   1.382       .  A
C822        H825   1.082       .  S
C823       C1091   1.470       .  S
N826        C827   1.360       .  A
N826       C1047   1.448       .  S
C827       C1081   1.470       .  S
C828        C829   1.367       .  A
C828        H831   1.083       .  S
C829        C830   1.380       .  A
C829        H832   1.082       .  S
C830       C1025   1.472       .  S
O833       Mg835   2.147       .  S
O833       Mg841   2.131       .  S
O833        C868   1.240       .  S
C834        H873   1.080       .  S
C834        O847   1.237       .  S
C834        O871   1.271       .  A
Mg835       O864   2.137       .  S
Mg835       O879   2.328       .  S
Mg835       O875   2.279       .  S
Mg835       O846   2.305       .  S
O836       Mg878   2.136       .  S
O836       Mg861   2.119       .  S
O836        C857   1.238       .  S
O837        C868   1.275       .  A
O837       Mg861   2.317       .  S
C838       C1191   1.481       .  S
C838        O840   1.272       .  A
C838        O852   1.275       .  A
O839        C867   1.273       .  A
O839       Mg841   2.306       .  S
O840       Mg872   2.245       .  S
Mg841       O847   2.129       .  S
Mg841       O855   2.225       .  S
Mg841       O843   2.329       .  S
C842       C1069   1.485       .  S
C842        O880   1.274       .  A
C842        O848   1.276       .  A
O843        C850   1.276       .  A
H844        C857   1.081       .  S
C845        H870   1.081       .  S
C845        O859   1.239       .  S
C845        O860   1.273       .  A
O846        C869   1.272       .  A
O847       Mg861   2.125       .  S
O848       Mg878   2.313       .  S
C849       C1279   1.488       .  S
C849        O862   1.273       .  A
C849        O854   1.278       .  A
C850       C1257   1.486       .  S
C850        O877   1.270       .  A
Mg851       O858   2.148       .  S
Mg851       O859   2.136       .  S
Mg851       O852   2.310       .  S
Mg851       O853   2.295       .  S
Mg851       O880   2.264       .  S
O853        C857   1.271       .  A
O854       Mg861   2.331       .  S
O855        C874   1.270       .  A
O856        C876   1.279       .  A
O856       Mg872   2.327       .  S
O858       Mg872   2.134       .  S
O858        C869   1.237       .  S
O859       Mg878   2.131       .  S
O860       Mg872   2.305       .  S
Mg861       O877   2.245       .  S
O862       Mg878   2.261       .  S
H863        C868   1.081       .  S
O864       Mg872   2.129       .  S
O864        C867   1.239       .  S
H865        C867   1.081       .  S
H866        C869   1.080       .  S
O871       Mg878   2.301       .  S
C874       C1135   1.480       .  S
C874        O879   1.277       .  A
O875        C876   1.274       .  A
C876       C1213   1.491       .  S
O881       Mg883   2.134       .  S
O881       Mg889   2.138       .  S
O881        C916   1.239   1_545  S
C882        H921   1.081       .  S
C882        O895   1.239       .  S
C882        O919   1.273       .  A
Mg883       O912   2.136       .  S
Mg883       O927   2.344       .  S
Mg883       O923   2.274       .  S
Mg883       O894   2.309   1_545  S
O884       Mg926   2.142       .  S
O884       Mg909   2.138       .  S
O884        C905   1.238       .  S
O885        C916   1.273       .  A
O885       Mg909   2.302       .  S
C886       C1311   1.485       .  S
C886        O888   1.270       .  A
C886        O900   1.277       .  A
O887        C915   1.271       .  A
O887       Mg889   2.295       .  S
O888       Mg920   2.246   1_565  S
Mg889       O895   2.146       .  S
Mg889       O903   2.263       .  S
Mg889       O891   2.314       .  S
C890       C1235   1.491       .  S
C890        O928   1.273       .  A
C890        O896   1.281       .  A
O891        C898   1.276       .  A
H892        C905   1.081       .  S
C893        H918   1.081   1_565  S
C893        O907   1.241       .  S
C893        O908   1.276   1_565  A
O894        C917   1.273       .  A
O895       Mg909   2.138   1_545  S
O896       Mg926   2.350       .  S
C897       C1411   1.489       .  S
C897        O910   1.277       .  A
C897        O902   1.277       .  A
C898       C1389   1.484       .  S
C898        O925   1.274   1_545  A
Mg899       O906   2.142       .  S
Mg899       O907   2.136       .  S
Mg899       O900   2.326       .  S
Mg899       O901   2.304       .  S
Mg899       O928   2.252       .  S
O901        C905   1.272       .  A
O902       Mg909   2.310       .  S
O903        C922   1.274       .  A
O904        C924   1.278       .  A
O904       Mg920   2.334       .  S
O906       Mg920   2.127   1_565  S
O906        C917   1.239       .  S
O907       Mg926   2.152       .  S
O908       Mg920   2.318       .  S
Mg909       O925   2.268       .  S
O910       Mg926   2.299       .  S
H911        C916   1.081       .  S
O912       Mg920   2.126       .  S
O912        C915   1.238       .  S
H913        C915   1.081       .  S
H914        C917   1.080       .  S
O919       Mg926   2.309   1_545  S
C922       C1157   1.492       .  S
C922        O927   1.280       .  A
O923        C924   1.275       .  A
C924       C1333   1.492       .  S
O929       Mg931   2.136   1_565  S
O929       Mg937   2.135       .  S
O929        C964   1.240   1_455  S
C930        H969   1.080       .  S
C930        O943   1.237       .  S
C930        O967   1.270       .  A
Mg931       O960   2.137       .  S
Mg931       O975   2.323       .  S
Mg931       O971   2.277       .  S
Mg931       O942   2.308   1_455  S
O932       Mg974   2.139       .  S
O932       Mg957   2.117       .  S
O932        C953   1.238       .  S
O933        C964   1.274       .  A
O933       Mg957   2.305       .  S
C934       C1433   1.479       .  S
C934        O936   1.272       .  A
C934        O948   1.275       .  A
O935        C963   1.273       .  A
O935       Mg937   2.301   1_545  S
O936       Mg968   2.252   1_655  S
Mg937       O943   2.124       .  S
Mg937       O951   2.256       .  S
Mg937       O939   2.296       .  S
C938       C1367   1.480       .  S
C938        O976   1.272       .  A
C938        O944   1.277   1_545  A
O939        C946   1.275       .  A
H940        C953   1.081       .  S
C941        H966   1.082       .  S
C941        O955   1.239   1_455  S
C941        O956   1.273       .  A
O942        C965   1.273       .  A
O943       Mg957   2.137   1_455  S
O944       Mg974   2.304       .  S
C945       C1509   1.494       .  S
C945        O958   1.277       .  A
C945        O950   1.279       .  A
C946       C1487   1.480       .  S
C946        O973   1.273       .  A
Mg947       O954   2.138       .  S
Mg947       O955   2.148       .  S
Mg947       O948   2.309       .  S
Mg947       O949   2.292       .  S
Mg947       O976   2.252       .  S
O949        C953   1.271   1_545  A
O950       Mg957   2.330       .  S
O951        C970   1.272   1_565  A
O952        C972   1.277       .  A
O952       Mg968   2.315       .  S
O954       Mg968   2.131   1_655  S
O954        C965   1.238       .  S
O955       Mg974   2.149   1_545  S
O956       Mg968   2.309       .  S
Mg957       O973   2.256   1_655  S
O958       Mg974   2.291       .  S
H959        C964   1.081       .  S
O960       Mg968   2.123       .  S
O960        C963   1.239       .  S
H961        C963   1.081       .  S
H962        C965   1.080       .  S
O967       Mg974   2.293   1_455  S
C970       C1301   1.485       .  S
C970        O975   1.277       .  A
O971        C972   1.274       .  A
C972       C1455   1.488       .  S
O977       Mg979   2.132   1_655  S
O977       Mg985   2.139       .  S
O977       C1012   1.239       .  S
C978       H1017   1.081       .  S
C978        O991   1.238       .  S
C978       O1015   1.273       .  A
Mg979      O1008   2.130       .  S
Mg979      O1023   2.325       .  S
Mg979      O1019   2.253       .  S
Mg979       O990   2.303       .  S
O980      Mg1022   2.133       .  S
O980      Mg1005   2.130       .  S
O980       C1001   1.238       .  S
O981       C1012   1.274       .  A
O981      Mg1005   2.306       .  S
C982       C1103   1.478       .  S
C982        O984   1.271       .  A
C982        O996   1.273       .  A
O983       C1011   1.270   1_655  A
O983       Mg985   2.294       .  S
O984      Mg1016   2.245       .  S
Mg985       O991   2.144       .  S
Mg985       O999   2.258       .  S
Mg985       O987   2.303       .  S
C986       C1543   1.487       .  S
C986       O1024   1.271       .  A
C986        O992   1.278   1_455  A
O987        C994   1.274       .  A
H988       C1001   1.081       .  S
C989       H1014   1.081       .  S
C989       O1003   1.240       .  S
C989       O1004   1.274       .  A
O990       C1013   1.272       .  A
O991      Mg1005   2.137       .  S
O992      Mg1022   2.337       .  S
C993       C1059   1.488       .  S
C993       O1006   1.274       .  A
C993        O998   1.279       .  A
C994       C1037   1.482       .  S
C994       O1021   1.273       .  A
Mg995      O1002   2.139       .  S
Mg995      O1003   2.135       .  S
Mg995       O996   2.295       .  S
Mg995       O997   2.299       .  S
Mg995      O1024   2.245       .  S
O997       C1001   1.272   1_455  A
O998      Mg1005   2.333       .  S
O999       C1018   1.273       .  A
O1000      C1020   1.279       .  A
O1000     Mg1016   2.337       .  S
O1002     Mg1016   2.137       .  S
O1002      C1013   1.238       .  S
O1003     Mg1022   2.136   1_455  S
O1004     Mg1016   2.308       .  S
Mg1005     O1021   2.258       .  S
O1006     Mg1022   2.272       .  S
H1007      C1012   1.081       .  S
O1008     Mg1016   2.121       .  S
O1008      C1011   1.237       .  S
H1009      C1011   1.081       .  S
H1010      C1013   1.081       .  S
O1015     Mg1022   2.307       .  S
C1018      C1477   1.487       .  S
C1018      O1023   1.277   1_655  A
O1019      C1020   1.273       .  A
C1020      C1113   1.486       .  S
C1025      C1026   1.396       .  A
C1025      C1030   1.398       .  A
C1026      C1027   1.391       .  A
C1026      H1039   1.084       .  S
C1027      C1028   1.414       .  A
C1027      H1040   1.076       .  S
C1028      C1034   1.428       .  A
C1028      C1029   1.424       .  A
C1029      C1031   1.399       .  A
C1029      C1030   1.407       .  A
C1030      H1041   1.085       .  S
C1031      C1032   1.392       .  A
C1031      H1042   1.084       .  S
C1032      C1033   1.401       .  A
C1032      H1043   1.084       .  S
C1033      C1034   1.422       .  A
C1033      C1038   1.407       .  A
C1034      C1035   1.414       .  A
C1035      C1036   1.393       .  A
C1035      H1044   1.076       .  S
C1036      C1037   1.400       .  A
C1036      H1045   1.083       .  S
C1037      C1038   1.405       .  A
C1038      H1046   1.084       .  S
C1047      C1048   1.402       .  A
C1047      C1052   1.402       .  A
C1048      C1049   1.398       .  A
C1048      H1061   1.082       .  S
C1049      C1050   1.415       .  A
C1049      H1062   1.077       .  S
C1050      C1056   1.434       .  A
C1050      C1051   1.423       .  A
C1051      C1053   1.400       .  A
C1051      C1052   1.408       .  A
C1052      H1063   1.083       .  S
C1053      C1054   1.391       .  A
C1053      H1064   1.084       .  S
C1054      C1055   1.400       .  A
C1054      H1065   1.084       .  S
C1055      C1056   1.423       .  A
C1055      C1060   1.409       .  A
C1056      C1057   1.415       .  A
C1057      C1058   1.399       .  A
C1057      H1066   1.078       .  S
C1058      C1059   1.402       .  A
C1058      H1067   1.083       .  S
C1059      C1060   1.404       .  A
C1060      H1068   1.084       .  S
C1069      C1070   1.404       .  A
C1069      C1074   1.401       .  A
C1070      C1071   1.401       .  A
C1070      H1083   1.083       .  S
C1071      C1072   1.416       .  A
C1071      H1084   1.078       .  S
C1072      C1078   1.432       .  A
C1072      C1073   1.422       .  A
C1073      C1075   1.398       .  A
C1073      C1074   1.401       .  A
C1074      H1085   1.085       .  S
C1075      C1076   1.386       .  A
C1075      H1086   1.085       .  S
C1076      C1077   1.397       .  A
C1076      H1087   1.084       .  S
C1077      C1078   1.423       .  A
C1077      C1082   1.401       .  A
C1078      C1079   1.417       .  A
C1079      C1080   1.401       .  A
C1079      H1088   1.078       .  S
C1080      C1081   1.398       .  A
C1081      C1082   1.396       .  A
C1082      H1090   1.086       .  S
C1091      C1092   1.397       .  A
C1091      C1096   1.395       .  A
C1092      C1093   1.399       .  A
C1092      H1105   1.083       .  S
C1093      C1094   1.418       .  A
C1093      H1106   1.077       .  S
C1094      C1100   1.428       .  A
C1094      C1095   1.422       .  A
C1095      C1097   1.397       .  A
C1095      C1096   1.396       .  A
C1096      H1107   1.085       .  S
C1097      C1098   1.385       .  A
C1097      H1108   1.084       .  S
C1098      C1099   1.398       .  A
C1098      H1109   1.084       .  S
C1099      C1100   1.423       .  A
C1099      C1104   1.398       .  A
C1100      C1101   1.415       .  A
C1101      C1102   1.398       .  A
C1101      H1110   1.078       .  S
C1102      C1103   1.402       .  A
C1102      H1111   1.083       .  S
C1103      C1104   1.400       .  A
C1104      H1112   1.085       .  S
C1113      C1114   1.402       .  A
C1113      C1118   1.404       .  A
C1114      C1115   1.394       .  A
C1114      H1127   1.083       .  S
C1115      C1116   1.413       .  A
C1115      H1128   1.076       .  S
C1116      C1122   1.431       .  A
C1116      C1117   1.424       .  A
C1117      C1119   1.400       .  A
C1117      C1118   1.411       .  A
C1118      H1129   1.085       .  S
C1119      C1120   1.392       .  A
C1119      H1130   1.084       .  S
C1120      C1121   1.401       .  A
C1120      H1131   1.084       .  S
C1121      C1122   1.421       .  A
C1121      C1126   1.407       .  A
C1122      C1123   1.415       .  A
C1123      C1124   1.396       .  A
C1123      H1132   1.076       .  S
C1124      C1125   1.400       .  A
C1124      H1133   1.082       .  S
C1125      C1126   1.403       .  A
C1126      H1134   1.080       .  S
C1135      C1136   1.402       .  A
C1135      C1140   1.403       .  A
C1136      C1137   1.387       .  A
C1136      H1149   1.083       .  S
C1137      C1138   1.410       .  A
C1137      H1150   1.076       .  S
C1138      C1144   1.425       .  A
C1138      C1139   1.423       .  A
C1139      C1141   1.400       .  A
C1139      C1140   1.408       .  A
C1140      H1151   1.085       .  S
C1141      C1142   1.392       .  A
C1141      H1152   1.084       .  S
C1142      C1143   1.400       .  A
C1143      C1144   1.422       .  A
C1143      C1148   1.404       .  A
C1144      C1145   1.415       .  A
C1145      C1146   1.390       .  A
C1145      H1154   1.076       .  S
C1146      C1147   1.393       .  A
C1146      H1155   1.084       .  S
C1147      C1148   1.398       .  A
C1157      C1158   1.404       .  A
C1157      C1162   1.406       .  A
C1158      C1159   1.395       .  A
C1158      H1171   1.083       .  S
C1159      C1160   1.413       .  A
C1159      H1172   1.076       .  S
C1160      C1166   1.431       .  A
C1160      C1161   1.423       .  A
C1161      C1163   1.401       .  A
C1161      C1162   1.412       .  A
C1162      H1173   1.084       .  S
C1163      C1164   1.393       .  A
C1163      H1174   1.084       .  S
C1164      C1165   1.400       .  A
C1164      H1175   1.084       .  S
C1165      C1166   1.422       .  A
C1165      C1170   1.408       .  A
C1166      C1167   1.416       .  A
C1167      C1168   1.396       .  A
C1167      H1176   1.076       .  S
C1168      C1169   1.397       .  A
C1168      H1177   1.084       .  S
C1169      C1170   1.400       .  A
C1170      H1178   1.085       .  S
C1179      C1180   1.395       .  A
C1179      C1184   1.399       .  A
C1180      C1181   1.390       .  A
C1180      H1193   1.084       .  S
C1181      C1182   1.414       .  A
C1181      H1194   1.076       .  S
C1182      C1188   1.426       .  A
C1182      C1183   1.423       .  A
C1183      C1185   1.401       .  A
C1183      C1184   1.408       .  A
C1184      H1195   1.085       .  S
C1185      C1186   1.394       .  A
C1185      H1196   1.084       .  S
C1186      C1187   1.401       .  A
C1186      H1197   1.084       .  S
C1187      C1188   1.422       .  A
C1187      C1192   1.409       .  A
C1188      C1189   1.412       .  A
C1189      C1190   1.389       .  A
C1189      H1198   1.075       .  S
C1190      C1191   1.400       .  A
C1190      H1199   1.083       .  S
C1191      C1192   1.405       .  A
C1192      H1200   1.084       .  S
C1201      C1202   1.403       .  A
C1201      C1206   1.401       .  A
C1202      C1203   1.400       .  A
C1202      H1215   1.081       .  S
C1203      C1204   1.415       .  A
C1203      H1216   1.078       .  S
C1204      C1210   1.435       .  A
C1204      C1205   1.423       .  A
C1205      C1207   1.399       .  A
C1205      C1206   1.407       .  A
C1206      H1217   1.083       .  S
C1207      C1208   1.390       .  A
C1207      H1218   1.084       .  S
C1208      C1209   1.399       .  A
C1208      H1219   1.084       .  S
C1209      C1210   1.422       .  A
C1209      C1214   1.407       .  A
C1210      C1211   1.416       .  A
C1211      C1212   1.401       .  A
C1211      H1220   1.078       .  S
C1212      C1213   1.404       .  A
C1212      H1221   1.083       .  S
C1213      C1214   1.404       .  A
C1214      H1222   1.084       .  S
C1223      C1224   1.399       .  A
C1223      C1228   1.397       .  A
C1224      C1225   1.402       .  A
C1224      H1237   1.083       .  S
C1225      C1226   1.416       .  A
C1225      H1238   1.078       .  S
C1226      C1232   1.435       .  A
C1226      C1227   1.424       .  A
C1227      C1229   1.398       .  A
C1227      C1228   1.404       .  A
C1228      H1239   1.086       .  S
C1229      C1230   1.387       .  A
C1229      H1240   1.084       .  S
C1230      C1231   1.399       .  A
C1230      H1241   1.084       .  S
C1231      C1232   1.421       .  A
C1231      C1236   1.403       .  A
C1232      C1233   1.418       .  A
C1233      C1234   1.404       .  A
C1233      H1242   1.078       .  S
C1234      C1235   1.403       .  A
C1234      H1243   1.082       .  S
C1235      C1236   1.404       .  A
C1236      H1244   1.085       .  S
C1245      C1246   1.397       .  A
C1245      C1250   1.397       .  A
C1246      C1247   1.402       .  A
C1246      H1259   1.083       .  S
C1247      C1248   1.418       .  A
C1247      H1260   1.078       .  S
C1248      C1254   1.433       .  A
C1248      C1249   1.423       .  A
C1249      C1251   1.398       .  A
C1249      C1250   1.400       .  A
C1250      H1261   1.086       .  S
C1251      C1252   1.386       .  A
C1251      H1262   1.085       .  S
C1252      C1253   1.399       .  A
C1252      H1263   1.084       .  S
C1253      C1254   1.422       .  A
C1253      C1258   1.401       .  A
C1254      C1255   1.417       .  A
C1255      C1256   1.402       .  A
C1255      H1264   1.078       .  S
C1256      C1257   1.403       .  A
C1256      H1265   1.083       .  S
C1257      C1258   1.403       .  A
C1258      H1266   1.085       .  S
C1267      C1268   1.400       .  A
C1267      C1272   1.401       .  A
C1268      C1269   1.398       .  A
C1268      H1281   1.082       .  S
C1269      C1270   1.416       .  A
C1269      H1282   1.078       .  S
C1270      C1276   1.433       .  A
C1270      C1271   1.423       .  A
C1271      C1273   1.400       .  A
C1271      C1272   1.408       .  A
C1272      H1283   1.084       .  S
C1273      C1274   1.391       .  A
C1273      H1284   1.084       .  S
C1274      C1275   1.400       .  A
C1274      H1285   1.084       .  S
C1275      C1276   1.423       .  A
C1275      C1280   1.409       .  A
C1276      C1277   1.414       .  A
C1277      C1278   1.397       .  A
C1277      H1286   1.078       .  S
C1278      C1279   1.403       .  A
C1278      H1287   1.083       .  S
C1279      C1280   1.404       .  A
C1280      H1288   1.085       .  S
C1289      C1290   1.398       .  A
C1289      C1294   1.398   1_545  A
C1290      C1291   1.400       .  A
C1290      H1303   1.083       .  S
C1291      C1292   1.417       .  A
C1291      H1304   1.077       .  S
C1292      C1298   1.433       .  A
C1292      C1293   1.423   1_545  A
C1293      C1295   1.399       .  A
C1293      C1294   1.403       .  A
C1295      C1296   1.388       .  A
C1295      H1306   1.084       .  S
C1296      C1297   1.399       .  A
C1296      H1307   1.084       .  S
C1297      C1298   1.422   1_565  A
C1297      C1302   1.404       .  A
C1298      C1299   1.416       .  A
C1299      C1300   1.400       .  A
C1299      H1308   1.077       .  S
C1300      C1301   1.402       .  A
C1300      H1309   1.083       .  S
C1301      C1302   1.403   1_545  A
C1302      H1310   1.085       .  S
C1311      C1312   1.402       .  A
C1311      C1316   1.403   1_565  A
C1312      C1313   1.400       .  A
C1312      H1325   1.083       .  S
C1313      C1314   1.416       .  A
C1313      H1326   1.078       .  S
C1314      C1320   1.431       .  A
C1314      C1315   1.422   1_565  A
C1315      C1317   1.399       .  A
C1315      C1316   1.401       .  A
C1316      H1327   1.085       .  S
C1317      C1318   1.387       .  A
C1317      H1328   1.084       .  S
C1318      C1319   1.398       .  A
C1318      H1329   1.084       .  S
C1319      C1320   1.422   1_545  A
C1319      C1324   1.400       .  A
C1320      C1321   1.417       .  A
C1321      C1322   1.400       .  A
C1321      H1330   1.077       .  S
C1322      C1323   1.398   1_565  A
C1322      H1331   1.083   1_556  S
C1323      C1324   1.399       .  A
C1324      H1332   1.085       .  S
C1333      C1334   1.405       .  A
C1333      C1338   1.403       .  A
C1334      C1335   1.404       .  A
C1334      H1347   1.083   1_545  S
C1335      C1336   1.416       .  A
C1335      H1348   1.078   1_545  S
C1336      C1342   1.437       .  A
C1336      C1337   1.423       .  A
C1337      C1339   1.399       .  A
C1337      C1338   1.406       .  A
C1338      H1349   1.084       .  S
C1339      C1340   1.389       .  A
C1339      H1350   1.084       .  S
C1340      C1341   1.399       .  A
C1340      H1351   1.084       .  S
C1341      C1342   1.422       .  A
C1341      C1346   1.405       .  A
C1342      C1343   1.417   1_545  A
C1343      C1344   1.404       .  A
C1343      H1352   1.078       .  S
C1344      C1345   1.404   1_565  A
C1344      H1353   1.080       .  S
C1345      C1346   1.404       .  A
C1346      H1354   1.083       .  S
C1355      C1356   1.396   1_545  A
C1355      C1360   1.399       .  A
C1356      C1357   1.397       .  A
C1356      H1369   1.083       .  S
C1357      C1358   1.416   1_565  A
C1357      H1370   1.078       .  S
C1358      C1364   1.428       .  A
C1358      C1359   1.422       .  A
C1359      C1361   1.399       .  A
C1359      C1360   1.403       .  A
C1361      C1362   1.390       .  A
C1362      C1363   1.400       .  A
C1362      H1373   1.085       .  S
C1363      C1364   1.422       .  A
C1363      C1368   1.404       .  A
C1364      C1365   1.414   1_545  A
C1365      C1366   1.395       .  A
C1365      H1374   1.078       .  S
C1366      C1367   1.401   1_565  A
C1366      H1375   1.083       .  S
C1367      C1368   1.403       .  A
C1368      H1376   1.085       .  S
C1377      C1378   1.400       .  A
C1377      C1382   1.401   1_565  A
C1378      C1379   1.391       .  A
C1378      H1391   1.084       .  S
C1379      C1380   1.412       .  A
C1379      H1392   1.077       .  S
C1380      C1386   1.430       .  A
C1380      C1381   1.424   1_565  A
C1381      C1383   1.400       .  A
C1381      C1382   1.410       .  A
C1382      H1393   1.084       .  S
C1383      C1384   1.393       .  A
C1383      H1394   1.084       .  S
C1384      C1385   1.401       .  A
C1384      H1395   1.084       .  S
C1385      C1386   1.421   1_545  A
C1385      C1390   1.408       .  A
C1386      C1387   1.415       .  A
C1387      C1388   1.395       .  A
C1387      H1396   1.077       .  S
C1388      C1389   1.400   1_565  A
C1388      H1397   1.083       .  S
C1389      C1390   1.405       .  A
C1390      H1398   1.084       .  S
C1399      C1400   1.401   1_565  A
C1399      C1404   1.403       .  A
C1400      C1401   1.399       .  A
C1400      H1413   1.083       .  S
C1401      C1402   1.416   1_545  A
C1401      H1414   1.078       .  S
C1402      C1408   1.432       .  A
C1402      C1403   1.422       .  A
C1403      C1405   1.401       .  A
C1403      C1404   1.409       .  A
C1405      C1406   1.393       .  A
C1405      H1416   1.084       .  S
C1406      C1407   1.401       .  A
C1406      H1417   1.084       .  S
C1407      C1408   1.423       .  A
C1407      C1412   1.412       .  A
C1408      C1409   1.413       .  A
C1409      C1410   1.397       .  A
C1409      H1418   1.078   1_565  S
C1410      C1411   1.403       .  A
C1410      H1419   1.083       .  S
C1411      C1412   1.405       .  A
C1412      H1420   1.085       .  S
C1421      C1422   1.397   1_655  A
C1421      C1426   1.400       .  A
C1422      C1423   1.388       .  A
C1422      H1435   1.084       .  S
C1423      C1424   1.411   1_455  A
C1423      H1436   1.077       .  S
C1424      C1430   1.424       .  A
C1424      C1425   1.423       .  A
C1425      C1427   1.400       .  A
C1425      C1426   1.409       .  A
C1426      H1437   1.084       .  S
C1427      C1428   1.394       .  A
C1427      H1438   1.083       .  S
C1428      C1429   1.402       .  A
C1428      H1439   1.084       .  S
C1429      C1430   1.420       .  A
C1429      C1434   1.407       .  A
C1430      C1431   1.413       .  A
C1431      C1432   1.391       .  A
C1431      H1440   1.077   1_655  S
C1432      C1433   1.400       .  A
C1432      H1441   1.083       .  S
C1433      C1434   1.405       .  A
C1434      H1442   1.085       .  S
C1443      C1444   1.401       .  A
C1443      C1448   1.404   1_655  A
C1444      C1445   1.398       .  A
C1444      H1457   1.081       .  S
C1445      C1446   1.415   1_655  A
C1445      H1458   1.077       .  S
C1446      C1452   1.432       .  A
C1446      C1447   1.422       .  A
C1447      C1449   1.401       .  A
C1447      C1448   1.408       .  A
C1448      H1459   1.082       .  S
C1449      C1450   1.392       .  A
C1449      H1460   1.083       .  S
C1450      C1451   1.400       .  A
C1450      H1461   1.084       .  S
C1451      C1452   1.422       .  A
C1451      C1456   1.409       .  A
C1452      C1453   1.414       .  A
C1453      C1454   1.397       .  A
C1453      H1462   1.077   1_455  S
C1454      C1455   1.403       .  A
C1454      H1463   1.083   1_455  S
C1455      C1456   1.405       .  A
C1456      H1464   1.084       .  S
C1465      C1466   1.396       .  A
C1465      C1470   1.400   1_655  A
C1466      C1467   1.394       .  A
C1466      H1479   1.084       .  S
C1467      C1468   1.416       .  A
C1467      H1480   1.077       .  S
C1468      C1474   1.428       .  A
C1468      C1469   1.421   1_655  A
C1469      C1471   1.400       .  A
C1469      C1470   1.406       .  A
C1470      H1481   1.085       .  S
C1471      C1472   1.393       .  A
C1471      H1482   1.084       .  S
C1472      C1473   1.401       .  A
C1472      H1483   1.084       .  S
C1473      C1474   1.423   1_455  A
C1473      C1478   1.410       .  A
C1474      C1475   1.412       .  A
C1475      C1476   1.392       .  A
C1475      H1484   1.077       .  S
C1476      C1477   1.402       .  A
C1476      H1485   1.083       .  S
C1477      C1478   1.405   1_655  A
C1478      H1486   1.085       .  S
C1487      C1488   1.401       .  A
C1487      C1492   1.402   1_455  A
C1488      C1489   1.395       .  A
C1488      H1501   1.083       .  S
C1489      C1490   1.413       .  A
C1489      H1502   1.077       .  S
C1490      C1496   1.427       .  A
C1490      C1491   1.423   1_455  A
C1491      C1493   1.399       .  A
C1491      C1492   1.402       .  A
C1492      H1503   1.085       .  S
C1493      C1494   1.387       .  A
C1493      H1504   1.084       .  S
C1494      C1495   1.398       .  A
C1494      H1505   1.084       .  S
C1495      C1496   1.422   1_655  A
C1495      C1500   1.399   1_655  A
C1496      C1497   1.418       .  A
C1497      C1498   1.396       .  A
C1497      H1506   1.077       .  S
C1498      C1499   1.394       .  A
C1498      H1507   1.083       .  S
C1499      C1500   1.396       .  A
C1500      H1508   1.085   1_455  S
C1509      C1510   1.405       .  A
C1509      C1514   1.406       .  A
C1510      C1511   1.401       .  A
C1510      H1523   1.082       .  S
C1511      C1512   1.415       .  A
C1511      H1524   1.079   1_655  S
C1512      C1518   1.435       .  A
C1512      C1513   1.422       .  A
C1513      C1515   1.400       .  A
C1513      C1514   1.409       .  A
C1514      H1525   1.085       .  S
C1515      C1516   1.392       .  A
C1515      H1526   1.084       .  S
C1516      C1517   1.400       .  A
C1516      H1527   1.084       .  S
C1517      C1518   1.422       .  A
C1517      C1522   1.408       .  A
C1518      C1519   1.415   1_655  A
C1519      C1520   1.401       .  A
C1519      H1528   1.078       .  S
C1520      C1521   1.403       .  A
C1520      H1529   1.081       .  S
C1521      C1522   1.404   1_455  A
C1522      H1530   1.082       .  S
C1531      C1532   1.398   1_455  A
C1531      C1536   1.396       .  A
C1532      C1533   1.401       .  A
C1532      H1545   1.083       .  S
C1533      C1534   1.418   1_655  A
C1533      H1546   1.078       .  S
C1534      C1540   1.432       .  A
C1534      C1535   1.423       .  A
C1535      C1537   1.397       .  A
C1535      C1536   1.400       .  A
C1537      C1538   1.386       .  A
C1538      C1539   1.398       .  A
C1538      H1549   1.084       .  S
C1539      C1540   1.422       .  A
C1539      C1544   1.401       .  A
C1540      C1541   1.417   1_455  A
C1541      C1542   1.402       .  A
C1541      H1550   1.078       .  S
C1542      C1543   1.402   1_655  A
C1542      H1551   1.083       .  S
C1543      C1544   1.403       .  A
C1544      H1552   1.085       .  S
