geometry optimzed in LAMMPS
_audit_creation_date              2020-12-01 
_audit_creation_method            'lammps2cif' 
_symmetry_space_group_name_H-M    'P1' 
_symmetry_Int_Tables_number       1 
_symmetry_cell_setting            triclinic 
loop_ 
_symmetry_equiv_pos_as_xyz 
  x,y,z 
_cell_length_a                    27.58273344 
_cell_length_b                    26.764098459033576 
_cell_length_c                    37.17196408383335 
_cell_angle_alpha                 90.99226646135433 
_cell_angle_beta                  89.72512425862975 
_cell_angle_gamma                 88.72231030484231 
loop_ 
_atom_site_label 
_atom_site_type_symbol 
_atom_site_fract_x 
_atom_site_fract_y 
_atom_site_fract_z 
_atom_site_charge 
C1          C  0.55611083  0.46473322  0.28451180     0.88300
C2          C  0.55829620  0.51988286  0.27478739    -0.51900
C3          C  0.52662203  0.53349913  0.24819388     0.11200
C4          C  0.49509070  0.48999031  0.23448825     0.22200
C5          C  0.50339907  0.45635887  0.29472760    -0.52700
C6          C  0.47063933  0.46856256  0.26844326     0.11300
C7          C  0.56425205  0.43600613  0.24902814    -0.52200
C8          C  0.53263804  0.44946335  0.22273940     0.11900
H9          H  0.58515381  0.54453588  0.28614704     0.16400
H10         H  0.46938590  0.50058270  0.21284844     0.02100
H11         H  0.49376237  0.44201575  0.32082476     0.16700
H12         H  0.59341381  0.40853838  0.24470546     0.16500
C13         C  0.03542578  0.02336071  0.26332147     0.88300
C14         C  0.01694876  0.05834280  0.23371193    -0.51900
C15         C  0.96954564  0.05193108  0.22478830     0.11200
C16         C  0.94451921  0.01127057  0.24631695     0.22200
C17         C  0.99978754  0.03227474  0.29479540    -0.52700
C18         C  0.95244197  0.02619466  0.28586980     0.11300
C19         C  0.02430614  0.97022766  0.24919152    -0.52200
C20         C  0.97640325  0.96381805  0.24047460     0.11900
H21         H  0.03935113  0.08609926  0.22117650     0.16400
H22         H  0.90576584  0.00656423  0.23922336     0.02100
H23         H  0.01101155  0.04357181  0.32166112     0.16700
H24         H  0.05145870  0.94068707  0.24632877     0.16500
C25         C  0.04627903  0.46717786  0.26037918     0.88300
C26         C  0.01342090  0.45191576  0.29171683    -0.51900
C27         C  0.96517207  0.45553835  0.28428685     0.11200
C28         C  0.95376963  0.47494094  0.24654255     0.22200
C29         C  0.03026648  0.43492610  0.22804847    -0.52700
C30         C  0.98185833  0.43915066  0.22099997     0.11300
C31         C  0.02904625  0.52055412  0.25140066    -0.52200
C32         C  0.98041811  0.52468428  0.24403717     0.11900
H33         H  0.02716309  0.43822468  0.31714566     0.16400
H34         H  0.91435379  0.47789109  0.24060134     0.02100
H35         H  0.05487715  0.41077575  0.21241341     0.16700
H36         H  0.05362904  0.55150168  0.24953809     0.16500
C37         C  0.10117477  0.74936254  0.96504819     0.88300
C38         C  0.08891625  0.79467917  0.94180644    -0.51900
C39         C  0.11186720  0.79342466  0.90920267     0.11200
C40         C  0.14548608  0.74732429  0.90301718     0.22200
C41         C  0.08907200  0.70379469  0.94147341    -0.52700
C42         C  0.11221284  0.70287626  0.90898843     0.11300
C43         C  0.15659217  0.74808911  0.96815416    -0.52200
C44         C  0.17985958  0.74692870  0.93562442     0.11900
H45         H  0.06268645  0.82378796  0.94967939     0.16400
H46         H  0.16418048  0.74634491  0.87645123     0.02100
H47         H  0.06357588  0.67554746  0.94934815     0.16700
H48         H  0.17566147  0.74753991  0.99365839     0.16500
C49         C  0.40569456  0.73797774  0.96785348     0.88300
C50         C  0.41765295  0.68914858  0.94710981    -0.51900
C51         C  0.39590022  0.68628087  0.91429346     0.11200
C52         C  0.36380415  0.73202706  0.90533995     0.22200
C53         C  0.41994031  0.77956148  0.94217247    -0.52700
C54         C  0.39812465  0.77614037  0.90939517     0.11300
C55         C  0.35014269  0.74108729  0.97005825    -0.52200
C56         C  0.32819186  0.73803650  0.93725013     0.11900
H57         H  0.44314134  0.66082284  0.95658946     0.16400
H58         H  0.34616550  0.72951742  0.87856046     0.02100
H59         H  0.44596602  0.80810372  0.94887933     0.16700
H60         H  0.33005523  0.74556975  0.99516251     0.16500
In61       In  0.58383465  0.74613588  0.18299501     1.36900
C62         C  0.68098810  0.73986003  0.18006207     0.79400
O63         O  0.58247769  0.82941651  0.18054770    -0.59100
O64         O  0.54684081  0.79665838  0.22474820    -0.50000
C65         C  0.53277171  0.74645927  0.12217881     0.72000
O66         O  0.57847402  0.74603836  0.12231432    -0.44800
C67         C  0.56092597  0.66684892  0.22184948     0.76800
O68         O  0.65458716  0.70806283  0.16498561    -0.56700
O69         O  0.55820255  0.66720701  0.18806191    -0.46800
O70         O  0.65812369  0.77450498  0.19633791    -0.53100
C71         C  0.55865387  0.83629885  0.20936147     0.86900
O72         O  0.51323496  0.74706528  0.15284822    -0.55000
O73         O  0.57515346  0.70709595  0.23586609    -0.58300
In74       In  0.92571068  0.74198001  0.18193919     1.36900
C75         C  0.82919292  0.73894163  0.18031864     0.79400
O76         O  0.92296536  0.65942662  0.19355864    -0.59100
O77         O  0.96777015  0.70455894  0.22611352    -0.50000
C78         C  0.97075121  0.74414781  0.11823054     0.72000
O79         O  0.94608035  0.78055194  0.13064020    -0.44800
C80         C  0.95820484  0.82557271  0.21256636     0.76800
O81         O  0.85517730  0.73170795  0.15268386    -0.56700
O82         O  0.98299437  0.78557625  0.21018955    -0.46800
O83         O  0.85228513  0.74795373  0.20881038    -0.53100
C84         C  0.95326353  0.66133668  0.21880730     0.86900
O85         O  0.97094701  0.70600002  0.13744091    -0.55000
O86         O  0.91568872  0.82262164  0.20038027    -0.58300
C87         C  0.53670609  0.06815484  0.20426426     0.88300
C88         C  0.55264926  0.01603382  0.19133226    -0.51900
C89         C  0.54663801  0.97978114  0.21615708     0.11200
C90         C  0.52535385  0.99992753  0.25243507     0.22200
C91         C  0.48389494  0.06325648  0.21653585    -0.52700
C92         C  0.47776671  0.02757673  0.24215397     0.11300
C93         C  0.56536759  0.07771133  0.23865070    -0.52200
C94         C  0.55939942  0.04222261  0.26394829     0.11900
H95         H  0.56732948  0.00834989  0.16455428     0.16400
H96         H  0.52074534  0.97129047  0.27334945     0.02100
H97         H  0.45477375  0.08762650  0.20721172     0.16700
H98         H  0.58804588  0.10998958  0.24280222     0.16500
In99       In  0.25673436  0.39869851  0.32280592     1.36900
C100        C  0.26471324  0.29985360  0.31800021     0.79400
O101        O  0.17949992  0.37806442  0.31482303    -0.59100
O102        O  0.20423535  0.43994782  0.28564886    -0.50000
C103        C  0.24610643  0.45319828  0.38295315     0.72000
O104        O  0.24815982  0.40616031  0.38290866    -0.44800
C105        C  0.34773088  0.41991564  0.30429978     0.76800
O106        O  0.25733284  0.32287974  0.34751674    -0.56700
O107        O  0.31253862  0.43093935  0.28395340    -0.46800
O108        O  0.26856047  0.32727294  0.29081805    -0.53100
C109        C  0.16917126  0.41232087  0.29331558     0.86900
O110        O  0.24849918  0.47247775  0.35238334    -0.55000
O111        O  0.33588595  0.39863838  0.33281927    -0.58300
In112      In  0.26169270  0.04784853  0.30884392     1.36900
C113        C  0.26600731  0.14726341  0.31217543     0.79400
O114        O  0.34254930  0.03339247  0.30348086    -0.59100
O115        O  0.30143478  0.03819392  0.25575578    -0.50000
C116        C  0.26230119  0.99993854  0.37130892     0.72000
O117        O  0.24964599  0.04520622  0.36869525    -0.44800
C118        C  0.17474598  0.01982946  0.28425763     0.76800
O119        O  0.28240764  0.11981870  0.33668561    -0.56700
O120        O  0.21333641  0.99516083  0.27750085    -0.46800
O121        O  0.24745044  0.12416700  0.28606457    -0.53100
C122        C  0.34281433  0.03338320  0.26959777     0.86900
O123        O  0.27476619  0.97871879  0.34204420    -0.55000
O124        O  0.18071898  0.05829288  0.30359467    -0.58300
C125        C  0.25847662  0.89333873  0.53459720     0.88300
C126        C  0.21584156  0.91137715  0.55867712    -0.51900
C127        C  0.21635199  0.89063119  0.59201010     0.11200
C128        C  0.25870961  0.85368914  0.59810545     0.22200
C129        C  0.30401518  0.90479063  0.55660185    -0.52700
C130        C  0.30387429  0.88417428  0.58993136     0.11300
C131        C  0.25554689  0.83620887  0.53358701    -0.52200
C132        C  0.25543865  0.81551813  0.56685898     0.11900
H133        H  0.18860888  0.93878021  0.55049032     0.16400
H134        H  0.25875478  0.83689948  0.62525638     0.02100
H135        H  0.33252377  0.92891131  0.54737282     0.16700
H136        H  0.25296729  0.81418988  0.50886215     0.16500
C137        C  0.24184485  0.58314173  0.53938240     0.88300
C138        C  0.28658789  0.57027691  0.56219239    -0.51900
C139        C  0.28635648  0.59433129  0.59487300     0.11200
C140        C  0.24227006  0.62905857  0.60165178     0.22200
C141        C  0.19841156  0.57089729  0.56333031    -0.52700
C142        C  0.19903623  0.59462717  0.59609109     0.11300
C143        C  0.24112787  0.64018153  0.53668506    -0.52200
C144        C  0.24165694  0.66420426  0.56932711     0.11900
H145        H  0.31479163  0.54348833  0.55385388     0.16400
H146        H  0.24256955  0.64848467  0.62832961     0.02100
H147        H  0.17153925  0.54348155  0.55602180     0.16700
H148        H  0.24160440  0.65975430  0.51132171     0.16500
In149      In  0.73726042  0.92816794  0.68848327     1.36900
C150        C  0.73826193  0.82909908  0.68706550     0.79400
O151        O  0.81859244  0.92387424  0.68827216    -0.59100
O152        O  0.78380159  0.95291165  0.73533300    -0.50000
C153        C  0.73263878  0.97419217  0.62541490     0.72000
O154        O  0.70887234  0.93577569  0.63191640    -0.44800
C155        C  0.65553998  0.96306686  0.71958374     0.76800
O156        O  0.74331769  0.85437458  0.65905880    -0.56700
O157        O  0.69313353  0.98874520  0.71743656    -0.46800
O158        O  0.73280970  0.85424859  0.71583783    -0.53100
C159        C  0.82332221  0.94210884  0.71951350     0.86900
O160        O  0.75850521  0.98930638  0.65096792    -0.55000
O161        O  0.66019210  0.91946162  0.70666691    -0.58300
In162      In  0.76240443  0.57891001  0.68218957     1.36900
C163        C  0.74797051  0.67705986  0.68442358     0.79400
O164        O  0.68202059  0.57284633  0.68271138    -0.59100
O165        O  0.72014551  0.54796659  0.72872855    -0.50000
C166        C  0.76844028  0.52448066  0.62133422     0.72000
O167        O  0.77282423  0.57117841  0.62202104    -0.44800
C168        C  0.85088684  0.56642824  0.70925017     0.76800
O169        O  0.74754328  0.65203874  0.65536834    -0.56700
O170        O  0.83958703  0.60157142  0.68870919    -0.46800
O171        O  0.75514747  0.65201426  0.71240064    -0.53100
C172        C  0.67974037  0.55424153  0.71356913     0.86900
O173        O  0.76165697  0.50542106  0.65157070    -0.55000
O174        O  0.81687770  0.53739701  0.71623410    -0.58300
C175        C  0.73570880  0.08553935  0.46433372     0.88300
C176        C  0.69171964  0.07397316  0.44078438    -0.51900
C177        C  0.69389032  0.09463494  0.40755796     0.11200
C178        C  0.73950959  0.12541781  0.40101608     0.22200
C179        C  0.77986182  0.06775756  0.44184610    -0.52700
C180        C  0.78160033  0.08854486  0.40861505     0.11300
C181        C  0.73836408  0.14270465  0.46566052    -0.52200
C182        C  0.74056109  0.16366993  0.43249743     0.11900
H183        H  0.66259336  0.04995114  0.44905261     0.16400
H184        H  0.74118357  0.14223036  0.37391555     0.02100
H185        H  0.80655196  0.04039862  0.45098785     0.16700
H186        H  0.73923890  0.16455280  0.49055111     0.16500
C187        C  0.76297159  0.39487714  0.46449426     0.88300
C188        C  0.80657593  0.40476290  0.44010710    -0.51900
C189        C  0.80357068  0.38259122  0.40691127     0.11200
C190        C  0.75754220  0.35198483  0.40123686     0.22200
C191        C  0.71858436  0.41202187  0.44281019    -0.52700
C192        C  0.71596791  0.38959894  0.40966307     0.11300
C193        C  0.75975506  0.33778750  0.46589839    -0.52200
C194        C  0.75670695  0.31527265  0.43273836     0.11900
H195        H  0.83609226  0.42888013  0.44782405     0.16400
H196        H  0.75516072  0.33393622  0.37416449     0.02100
H197        H  0.69246592  0.44028188  0.45234439     0.16700
H198        H  0.75915482  0.31715205  0.49080362     0.16500
C199        C  0.45739484  0.03150671  0.77112813     0.88300
C200        C  0.42834820  0.01637163  0.73764694    -0.51900
C201        C  0.43858574  0.96881649  0.72567831     0.11200
C202        C  0.47652478  0.94063688  0.74819243     0.22200
C203        C  0.44664717  0.99130614  0.79881415    -0.52700
C204        C  0.45648220  0.94391507  0.78678491     0.11300
C205        C  0.51082218  0.02234898  0.76062279    -0.52200
C206        C  0.52102280  0.97454695  0.74845543     0.11900
H207        H  0.40190683  0.04082507  0.72483096     0.16400
H208        H  0.48426206  0.90176461  0.73844724     0.02100
H209        H  0.43184697  0.99948759  0.82547648     0.16700
H210        H  0.53737740  0.05149827  0.76254667     0.16500
C211        C  0.96233761  0.95334060  0.73175105     0.88300
C212        C  0.00246606  0.94128105  0.70402004    -0.51900
C213        C  0.04780128  0.95185180  0.71570729     0.11200
C214        C  0.04940728  0.97363759  0.75423921     0.22200
C215        C  0.97759017  0.92439594  0.76540740    -0.52700
C216        C  0.02326282  0.93493687  0.77700948     0.11300
C217        C  0.96898244  0.00863599  0.74165570    -0.52200
C218        C  0.01431714  0.01950030  0.75376853     0.11900
H219        H  0.99570872  0.92549952  0.67742693     0.16400
H220        H  0.08670746  0.98163767  0.76346955     0.02100
H221        H  0.95489714  0.89716055  0.77822787     0.16700
H222        H  0.94021128  0.03676570  0.73935067     0.16500
C223        C  0.96923945  0.51023591  0.74725203     0.88300
C224        C  0.98536488  0.54491866  0.77809215    -0.51900
C225        C  0.03313819  0.53904684  0.78662671     0.11200
C226        C  0.06049070  0.49896396  0.76393355     0.22200
C227        C  0.00414272  0.52016980  0.71606469    -0.52700
C228        C  0.05172937  0.51492903  0.72491758     0.11300
C229        C  0.98283665  0.45739574  0.75947117    -0.52200
C230        C  0.03076432  0.45120387  0.76818235     0.11900
H231        H  0.96146295  0.57240746  0.79132089     0.16400
H232        H  0.09944095  0.49452625  0.77100213     0.02100
H233        H  0.99228080  0.53228021  0.68971207     0.16700
H234        H  0.95650180  0.42809568  0.76188337     0.16500
C235        C  0.60015147  0.27345714  0.02181110     0.88300
C236        C  0.58304906  0.23009148  0.04473996    -0.51900
C237        C  0.60103097  0.23107808  0.07878245     0.11200
C238        C  0.63457866  0.27479688  0.08682488     0.22200
C239        C  0.58571691  0.32076565  0.04347211    -0.52700
C240        C  0.60340982  0.32121301  0.07762121     0.11300
C241        C  0.65573809  0.27026677  0.02299897    -0.52200
C242        C  0.67381114  0.27071635  0.05718498     0.11900
H243        H  0.55795938  0.20206536  0.03529018     0.16400
H244        H  0.64897555  0.27523698  0.11470698     0.02100
H245        H  0.56118899  0.34964693  0.03351832     0.16700
H246        H  0.67855927  0.26673562  0.99915025     0.16500
C247        C  0.90024815  0.24150710  0.03856713     0.88300
C248        C  0.91408977  0.28755539  0.06100762    -0.51900
C249        C  0.88997286  0.29170503  0.09303911     0.11200
C250        C  0.85387418  0.24977879  0.09964040     0.22200
C251        C  0.90920231  0.19707444  0.06339265    -0.52700
C252        C  0.88518322  0.20151025  0.09552618     0.11300
C253        C  0.84513418  0.24575311  0.03432880    -0.52200
C254        C  0.82070438  0.25033377  0.06625812     0.11900
H255        H  0.94183523  0.31338121  0.05296721     0.16400
H256        H  0.83431442  0.25344986  0.12579289     0.02100
H257        H  0.93408416  0.16615081  0.05687363     0.16700
H258        H  0.82709668  0.24609547  0.00840490     0.16500
In259      In  0.41635879  0.26317376  0.81157646     1.36900
C260        C  0.32088332  0.25584247  0.81177938     0.79400
O261        O  0.40282289  0.34577422  0.81286751    -0.59100
O262        O  0.45293832  0.31610788  0.77410180    -0.50000
C263        C  0.47245807  0.26696854  0.86919312     0.72000
O264        O  0.42691754  0.27040165  0.87129277    -0.44800
C265        C  0.43881953  0.17454155  0.78183013     0.76800
O266        O  0.34589560  0.25150904  0.83985112    -0.56700
O267        O  0.44174733  0.21448727  0.76448333    -0.46800
O268        O  0.34443966  0.26420056  0.78345000    -0.53100
C269        C  0.43227317  0.35444121  0.78790884     0.86900
O270        O  0.48937890  0.26166207  0.83782847    -0.55000
O271        O  0.42452278  0.18034543  0.81389239    -0.58300
In272      In  0.08010861  0.22908792  0.82330369     1.36900
C273        C  0.17479575  0.23983770  0.81706610     0.79400
O274        O  0.09569513  0.14596636  0.82609970    -0.59100
O275        O  0.04863144  0.17209125  0.78537876    -0.50000
C276        C  0.02839149  0.23196478  0.88404620     0.72000
O277        O  0.07391176  0.23389029  0.88373498    -0.44800
C278        C  0.05072361  0.31295111  0.79169725     0.76800
O279        O  0.15363092  0.23920189  0.84716345    -0.56700
O280        O  0.03938741  0.27020923  0.78022895    -0.46800
O281        O  0.14781817  0.23441081  0.79007439    -0.53100
C282        C  0.06897630  0.13498297  0.79989545     0.86900
O283        O  0.00916787  0.22860822  0.85352861    -0.55000
O284        O  0.07706132  0.31283266  0.81929433    -0.58300
C285        C  0.54260641  0.53686399  0.72841388     0.88300
C286        C  0.50155316  0.55229982  0.70303748    -0.51900
C287        C  0.45678114  0.54084643  0.71516997     0.11200
C288        C  0.45649957  0.51499538  0.75165628     0.22200
C289        C  0.52925317  0.56196930  0.76475814    -0.52700
C290        C  0.48409280  0.55035376  0.77678279     0.11300
C291        C  0.53592174  0.48067573  0.73395612    -0.52200
C292        C  0.49092384  0.46903144  0.74648983     0.11900
H293        H  0.50729248  0.57054114  0.67751294     0.16400
H294        H  0.41933622  0.50694790  0.76111430     0.02100
H295        H  0.55285044  0.58725407  0.77919228     0.16700
H296        H  0.56439847  0.45275379  0.72884153     0.16500
C297        C  0.44183334  0.40585473  0.77693374    -0.14600
C298        C  0.47836175  0.41679197  0.75463736    -0.29800
H299        H  0.42008703  0.43534976  0.78968095     0.14400
H300        H  0.50159942  0.38683234  0.74383870     0.15000
C301        C  0.26925762  0.25118683  0.81220878    -0.11500
C302        C  0.22602955  0.24627743  0.81386351    -0.13000
C303        C  0.92688455  0.23740157  0.00428531    -0.16700
C304        C  0.94967928  0.23553323  0.97649804     0.07400
C305        C  0.97696473  0.23427013  0.94422286     0.09200
C306        C  0.00045454  0.23332701  0.91676010    -0.17600
C307        C  0.57912423  0.27248386  0.98566347    -0.16700
C308        C  0.55727258  0.27143645  0.95768461     0.07400
C309        C  0.52854701  0.27008210  0.92641903     0.09200
C310        C  0.50295837  0.26879430  0.90027000    -0.17600
C311        C  0.72516232  0.26427831  0.06434911    -0.11500
C312        C  0.76851334  0.25777423  0.06738888    -0.13000
C313        C  0.03322554  0.35912121  0.77458317    -0.14600
C314        C  0.05160940  0.40409034  0.78260415    -0.29800
H315        H  0.00428585  0.35586643  0.75503389     0.14400
H316        H  0.08280496  0.40665990  0.80022482     0.15000
C317        C  0.02654897  0.07144180  0.76428249    -0.14600
C318        C  0.06157710  0.08278995  0.78783168    -0.29800
H319        H  0.00348206  0.10134292  0.75401192     0.14400
H320        H  0.08317131  0.05337720  0.80011516     0.15000
C321        C  0.44569482  0.08344994  0.78550378    -0.14600
C322        C  0.45109048  0.12486198  0.76609659    -0.29800
H323        H  0.43205246  0.08710665  0.81294187     0.14400
H324        H  0.46437906  0.12205554  0.73855773     0.15000
C325        C  0.74581652  0.21700871  0.42829803    -0.11500
C326        C  0.75095597  0.26180956  0.42846260    -0.13000
C327        C  0.63340736  0.54085738  0.73039010    -0.14600
C328        C  0.59140606  0.55033385  0.71351456    -0.29800
H329        H  0.63358354  0.52311648  0.75644833     0.14400
H330        H  0.59224108  0.56842397  0.68755920     0.15000
C331        C  0.90032492  0.56020407  0.72317976    -0.14600
C332        C  0.91663299  0.51715837  0.73718974    -0.29800
H333        H  0.92511366  0.59075112  0.71962390     0.14400
H334        H  0.89234201  0.48598731  0.73975826     0.15000
C335        C  0.77012651  0.49519078  0.58848617    -0.16700
C336        C  0.76993773  0.47068847  0.56088366     0.07400
C337        C  0.76827632  0.44263388  0.52827723     0.09200
C338        C  0.76607486  0.41995604  0.49995804    -0.17600
C339        C  0.87121571  0.95095267  0.73595423    -0.14600
C340        C  0.91250956  0.94150868  0.71741507    -0.29800
H341        H  0.87267339  0.96689755  0.76298553     0.14400
H342        H  0.91022590  0.92592954  0.69029125     0.15000
C343        C  0.60966017  0.98303136  0.73520605    -0.14600
C344        C  0.56924582  0.95569965  0.73545651    -0.29800
H345        H  0.60929694  0.02111703  0.74554298     0.14400
H346        H  0.57104605  0.91759202  0.72492490     0.15000
C347        C  0.73354449  0.06265352  0.49998743    -0.16700
C348        C  0.73194514  0.04297052  0.52894343     0.07400
C349        C  0.73079038  0.01923102  0.56263745     0.09200
C350        C  0.73088906  0.99870215  0.59130467    -0.17600
C351        C  0.73927551  0.77547147  0.68627793    -0.11500
C352        C  0.74198661  0.73045275  0.68549101    -0.13000
C353        C  0.41428799  0.55184552  0.69430809    -0.16700
C354        C  0.38277961  0.56217349  0.67327621     0.07400
C355        C  0.34937455  0.57433608  0.64612274     0.09200
C356        C  0.32150384  0.58400864  0.62231664    -0.17600
C357        C  0.08925823  0.52929588  0.70035852    -0.16700
C358        C  0.11609426  0.54496848  0.67772024     0.07400
C359        C  0.14418589  0.56468230  0.64971825     0.09200
C360        C  0.16799047  0.58020642  0.62522248    -0.17600
C361        C  0.33901428  0.89668268  0.61707512    -0.16700
C362        C  0.36526367  0.91037133  0.64099172     0.07400
C363        C  0.39296663  0.92912598  0.66991388     0.09200
C364        C  0.41458604  0.94668100  0.69510353    -0.17600
C365        C  0.08976757  0.94180687  0.69322048    -0.16700
C366        C  0.12108587  0.93105532  0.67150474     0.05800
C367        C  0.15457657  0.91702914  0.64406843     0.09200
C368        C  0.18223577  0.90484522  0.62009210    -0.17600
C369        C  0.24564431  0.71778236  0.57240339    -0.11500
C370        C  0.25030668  0.76248244  0.57162857    -0.13000
C371        C  0.26223793  0.97467227  0.40527634    -0.16700
C372        C  0.26126591  0.95523393  0.43440804     0.07400
C373        C  0.25965872  0.93368625  0.46898484     0.09200
C374        C  0.25862233  0.91564750  0.49859232    -0.17600
C375        C  0.24248334  0.48269472  0.41552967    -0.16700
C376        C  0.24127310  0.50697319  0.44316676     0.07400
C377        C  0.24119645  0.53443835  0.47595807     0.09200
C378        C  0.24154772  0.55692245  0.50435414    -0.17600
C379        C  0.26769091  0.20097059  0.31399347    -0.11500
C380        C  0.26740300  0.24611154  0.31555520    -0.13000
C381        C  0.65960833  0.08273966  0.37963959    -0.16700
C382        C  0.63305978  0.07043769  0.35549975     0.07400
C383        C  0.60451493  0.05600171  0.32574423     0.09200
C384        C  0.58249949  0.04656711  0.29857411    -0.17600
C385        C  0.58616046  0.19653136  0.10563847    -0.16700
C386        C  0.57221669  0.16839848  0.12815513     0.07400
C387        C  0.55610463  0.13538371  0.15451771     0.09200
C388        C  0.54475949  0.10605658  0.17707303    -0.17600
C389        C  0.43150293  0.02091560  0.26204420    -0.14600
C390        C  0.38775246  0.03115320  0.24772470    -0.29800
H391        H  0.43387238  0.00866480  0.28971968     0.14400
H392        H  0.38489225  0.04060546  0.21948947     0.15000
C393        C  0.54561737  0.88681282  0.22369502    -0.14600
C394        C  0.56060639  0.92740803  0.20651147    -0.29800
H395        H  0.52282100  0.89042500  0.24750282     0.14400
H396        H  0.58259624  0.92208008  0.18232415     0.15000
C397        C  0.73320965  0.73722231  0.17905709    -0.11500
C398        C  0.77703675  0.73730819  0.17936527    -0.13000
C399        C  0.40991719  0.80856760  0.88019960    -0.16700
C400        C  0.42149832  0.83580904  0.85628746     0.07400
C401        C  0.43556118  0.86956578  0.82959601     0.09200
C402        C  0.44644980  0.90137999  0.80865187    -0.17600
C403        C  0.46292986  0.57202553  0.80914693    -0.16700
C404        C  0.44480782  0.59269985  0.83513308     0.07400
C405        C  0.42450269  0.62074049  0.86422484     0.09200
C406        C  0.40943369  0.64845159  0.88783310    -0.17600
C407        C  0.43030086  0.74123681  0.00285344    -0.16700
C408        C  0.45280914  0.74325604  0.03063285     0.07400
C409        C  0.48071607  0.74496228  0.06249834     0.09200
C410        C  0.50480289  0.74594011  0.08956158    -0.17600
C411        C  0.04615074  0.90894606  0.80643248    -0.16700
C412        C  0.06473801  0.88526308  0.83029222     0.07400
C413        C  0.08482271  0.85545491  0.85785070     0.09200
C414        C  0.09933982  0.82826245  0.88126742    -0.17600
C415        C  0.05626913  0.57069722  0.81287218    -0.16700
C416        C  0.07354797  0.59937808  0.83436567     0.07400
C417        C  0.09081228  0.63461691  0.85965306     0.09200
C418        C  0.10253742  0.66545233  0.88178012    -0.17600
C419        C  0.07521731  0.75013807  0.99967493    -0.16700
C420        C  0.05150992  0.74971348  0.02702788     0.07400
C421        C  0.02240775  0.74824204  0.05836555     0.09200
C422        C  0.99789044  0.74642026  0.08525096    -0.17600
C423        C  0.23220400  0.74387984  0.93282428    -0.11500
C424        C  0.27601356  0.74103752  0.93340408    -0.13000
C425        C  0.90269794  0.32840646  0.12000162    -0.16700
C426        C  0.91787224  0.35676039  0.14262068     0.07400
C427        C  0.93918053  0.38723510  0.16931618     0.09200
C428        C  0.95870888  0.41143311  0.19251714    -0.17600
C429        C  0.92859972  0.43902788  0.30907894    -0.16700
C430        C  0.89931822  0.42376116  0.33024953     0.07400
C431        C  0.86591004  0.40607663  0.35581592     0.09200
C432        C  0.83762084  0.39313858  0.37854084    -0.17600
C433        C  0.10003510  0.46215399  0.26870437    -0.14600
C434        C  0.11936647  0.41835161  0.27940944    -0.29800
H435        H  0.12247730  0.49496641  0.26787116     0.14400
H436        H  0.09597318  0.38638430  0.28153798     0.15000
C437        C  0.95604536  0.57076149  0.23062033    -0.14600
C438        C  0.97273133  0.61680547  0.23717027    -0.29800
H439        H  0.92404046  0.56625373  0.21404426     0.14400
H440        H  0.00313125  0.62196987  0.25520591     0.15000
C441        C  0.91351818  0.03593239  0.31130617    -0.16700
C442        C  0.88257261  0.04664418  0.33335082     0.07400
C443        C  0.84755606  0.06125067  0.35961458     0.09200
C444        C  0.81787051  0.07414485  0.38206087    -0.17600
C445        C  0.89484685  0.16742316  0.12463020    -0.16700
C446        C  0.90765921  0.13964805  0.14829078     0.07400
C447        C  0.92660051  0.10798265  0.17532462     0.09200
C448        C  0.94514016  0.08190111  0.19795838    -0.17600
C449        C  0.97875051  0.87175891  0.22776832    -0.14600
C450        C  0.95541482  0.91637934  0.22665842    -0.29800
H451        H  0.01460895  0.86854671  0.23932373     0.14400
H452        H  0.91911349  0.91844124  0.21555410     0.15000
C453        C  0.08708913  0.03506769  0.27459537    -0.14600
C454        C  0.12655493  0.00464913  0.27080269    -0.29800
H455        H  0.09179680  0.07185365  0.28675781     0.14400
H456        H  0.12427435  0.96849925  0.25753316     0.15000
C457        C  0.67979487  0.40367262  0.38366199    -0.16700
C458        C  0.65099351  0.41749176  0.36145913     0.07400
C459        C  0.61829215  0.43492741  0.33516271     0.09200
C460        C  0.59048841  0.44944947  0.31249521    -0.17600
C461        C  0.58600647  0.35678740  0.10451659    -0.16700
C462        C  0.56905944  0.38301108  0.12832024     0.07400
C463        C  0.55015387  0.40989519  0.15845536     0.09200
C464        C  0.53828958  0.42968439  0.18661953    -0.17600
C465        C  0.41718546  0.45986973  0.27179460    -0.14600
C466        C  0.39941600  0.42932605  0.29698220    -0.29800
H467        H  0.39258713  0.47826710  0.25327080     0.14400
H468        H  0.42402169  0.40970309  0.31470193     0.15000
C469        C  0.52933405  0.58181671  0.22910540    -0.14600
C470        C  0.55028018  0.62256766  0.24338810    -0.29800
H471        H  0.51588362  0.58282229  0.20170458     0.14400
H472        H  0.56145228  0.62319419  0.27133186     0.15000
loop_ 
_geom_bond_atom_site_label_1 
_geom_bond_atom_site_label_2 
_geom_bond_distance 
_geom_bond_site_symmetry_2 
_ccdc_geom_bond_type 
C1            C2   1.528       .  S
C1            C7   1.528       .  S
C1            C5   1.523       .  S
C1          C460   1.468       .  S
C2            H9   1.085       .  S
C2            C3   1.371       .  D
C3            C4   1.549       .  S
C3          C469   1.489       .  S
C4            C8   1.539       .  S
C4            C6   1.553       .  S
C4           H10   1.111       .  S
C5           H11   1.084       .  S
C5            C6   1.373       .  D
C6          C465   1.503       .  S
C7           H12   1.087       .  S
C7            C8   1.361       .  D
C8          C464   1.441       .  S
C13          C14   1.539       .  S
C13          C19   1.545   1_545  S
C13          C17   1.536   1_455  S
C13         C453   1.525       .  S
C14          H21   1.087       .  S
C14          C15   1.364   1_455  D
C15          C16   1.536       .  S
C15         C448   1.450       .  S
C16          C20   1.540   1_545  S
C16          C18   1.535       .  S
C16          H22   1.112       .  S
C17          H23   1.087   1_655  S
C17          C18   1.362       .  D
C18         C441   1.444       .  S
C19          H24   1.080       .  S
C19          C20   1.376   1_455  D
C20         C450   1.491       .  S
C25          C26   1.539       .  S
C25          C31   1.538       .  S
C25          C29   1.540       .  S
C25         C433   1.520       .  S
C26          H33   1.087       .  S
C26          C27   1.362   1_455  D
C27          C28   1.536       .  S
C27         C429   1.445       .  S
C28          C32   1.539       .  S
C28          C30   1.532       .  S
C28          H34   1.112       .  S
C29          H35   1.086       .  S
C29          C30   1.365   1_455  D
C30         C428   1.442       .  S
C31          H36   1.085       .  S
C31          C32   1.373   1_455  D
C32         C437   1.486       .  S
C37          C38   1.534       .  S
C37          C43   1.533       .  S
C37          C41   1.533       .  S
C37         C419   1.469       .  S
C38          H45   1.087       .  S
C38          C39   1.364       .  D
C39          C40   1.540       .  S
C39         C414   1.446       .  S
C40          C44   1.542       .  S
C40          C42   1.537       .  S
C40          H46   1.111       .  S
C41          H47   1.087       .  S
C41          C42   1.363       .  D
C42         C418   1.441       .  S
C43          H48   1.087       .  S
C43          C44   1.366       .  D
C44         C423   1.447       .  S
C49          C50   1.535       .  S
C49          C55   1.534       .  S
C49          C53   1.535       .  S
C49         C407   1.472   1_556  S
C50          H57   1.087       .  S
C50          C51   1.364       .  D
C51          C52   1.537       .  S
C51         C406   1.441       .  S
C52          C56   1.540       .  S
C52          C54   1.536       .  S
C52          H58   1.112       .  S
C53          H59   1.087       .  S
C53          C54   1.364       .  D
C54         C399   1.442       .  S
C55          H60   1.086       .  S
C55          C56   1.366       .  D
C56         C424   1.448       .  S
In61         O63   2.232       .  S
In61         O64   2.265       .  S
In61         O72   2.251       .  S
In61         O66   2.261       .  S
In61         O68   2.274       .  S
In61         O69   2.253       .  S
In61         O70   2.256       .  S
In61         O73   2.256       .  S
C62          O68   1.258       .  A
C62          O70   1.255       .  A
C62         C397   1.441       .  S
O63          C71   1.263       .  A
O64          C71   1.262       .  A
C65          O72   1.258       .  A
C65          O66   1.260       .  A
C65         C410   1.440       .  S
C67          O69   1.259       .  A
C67          O73   1.260       .  A
C67         C470   1.476       .  S
C71         C393   1.481       .  S
In74         O76   2.261       .  S
In74         O77   2.251       .  S
In74         O85   2.256       .  S
In74         O79   2.259       .  S
In74         O81   2.253       .  S
In74         O82   2.240       .  S
In74         O83   2.255       .  S
In74         O86   2.264       .  S
C75          O81   1.259       .  A
C75          O83   1.261       .  A
C75         C398   1.441       .  S
O76          C84   1.261       .  A
O77          C84   1.258       .  A
C78          O85   1.256       .  A
C78          O79   1.256       .  A
C78         C422   1.436       .  S
C80          O82   1.259       .  A
C80          O86   1.263       .  A
C80         C449   1.476       .  S
C84         C438   1.476       .  S
C87          C88   1.522       .  S
C87          C93   1.527       .  S
C87          C91   1.533       .  S
C87         C388   1.464       .  S
C88          H95   1.087       .  S
C88          C89   1.363   1_545  D
C89          C90   1.551       .  S
C89         C394   1.483       .  S
C90          C94   1.543   1_565  S
C90          C92   1.545   1_565  S
C90          H96   1.110       .  S
C91          H97   1.085       .  S
C91          C92   1.373       .  D
C92         C389   1.487       .  S
C93          H98   1.087       .  S
C93          C94   1.360       .  D
C94         C384   1.443       .  S
In99        O101   2.233       .  S
In99        O102   2.286       .  S
In99        O110   2.250       .  S
In99        O104   2.250       .  S
In99        O106   2.242       .  S
In99        O107   2.298       .  S
In99        O108   2.250       .  S
In99        O111   2.216       .  S
C100        O106   1.262       .  A
C100        O108   1.264       .  A
C100        C380   1.440       .  S
O101        C109   1.256       .  A
O102        C109   1.265       .  A
C103        O110   1.258       .  A
C103        O104   1.259       .  A
C103        C375   1.436       .  S
C105        O107   1.266       .  A
C105        O111   1.257       .  A
C105        C466   1.478       .  S
C109        C434   1.477       .  S
In112       O114   2.262       .  S
In112       O115   2.261       .  S
In112       O123   2.265   1_545  S
In112       O117   2.250       .  S
In112       O119   2.257       .  S
In112       O120   2.273   1_545  S
In112       O121   2.252       .  S
In112       O124   2.255       .  S
C113        O119   1.260       .  A
C113        O121   1.259       .  A
C113        C379   1.440       .  S
O114        C122   1.259       .  A
O115        C122   1.259       .  A
C116        O123   1.261       .  A
C116        O117   1.259   1_565  A
C116        C371   1.443       .  S
C118        O120   1.262   1_545  A
C118        O124   1.260       .  A
C118        C454   1.485       .  S
C122        C390   1.479       .  S
C125        C126   1.538       .  S
C125        C131   1.533       .  S
C125        C129   1.536       .  S
C125        C374   1.475       .  S
C126        H133   1.086       .  S
C126        C127   1.367       .  D
C127        C128   1.534       .  S
C127        C368   1.442       .  S
C128        C132   1.538       .  S
C128        C130   1.536       .  S
C128        H134   1.112       .  S
C129        H135   1.087       .  S
C129        C130   1.365       .  D
C130        C361   1.443       .  S
C131        H136   1.087       .  S
C131        C132   1.364       .  D
C132        C370   1.444       .  S
C137        C138   1.537       .  S
C137        C143   1.531       .  S
C137        C141   1.534       .  S
C137        C378   1.469       .  S
C138        H145   1.086       .  S
C138        C139   1.365       .  D
C139        C140   1.531       .  S
C139        C356   1.437       .  S
C140        C144   1.539       .  S
C140        C142   1.536       .  S
C140        H146   1.112       .  S
C141        H147   1.087       .  S
C141        C142   1.364       .  D
C142        C360   1.441       .  S
C143        H148   1.087       .  S
C143        C144   1.364       .  D
C144        C369   1.443       .  S
In149       O151   2.244       .  S
In149       O152   2.267       .  S
In149       O160   2.254       .  S
In149       O154   2.258       .  S
In149       O156   2.244       .  S
In149       O157   2.260       .  S
In149       O158   2.246       .  S
In149       O161   2.246       .  S
C150        O156   1.260       .  A
C150        O158   1.260       .  A
C150        C351   1.435       .  S
O151        C159   1.260       .  A
O152        C159   1.262       .  A
C153        O160   1.257       .  A
C153        O154   1.258       .  A
C153        C350   1.438       .  S
C155        O157   1.260       .  A
C155        O161   1.258       .  A
C155        C343   1.475       .  S
C159        C339   1.480       .  S
In162       O164   2.227       .  S
In162       O165   2.261       .  S
In162       O173   2.256       .  S
In162       O167   2.259       .  S
In162       O169   2.242       .  S
In162       O170   2.240       .  S
In162       O171   2.244       .  S
In162       O174   2.255       .  S
C163        O169   1.261       .  A
C163        O171   1.261       .  A
C163        C352   1.435       .  S
O164        C172   1.260       .  A
O165        C172   1.260       .  A
C166        O173   1.257       .  A
C166        O167   1.258       .  A
C166        C335   1.440       .  S
C168        O170   1.257       .  A
C168        O174   1.260       .  A
C168        C331   1.468       .  S
C172        C327   1.474       .  S
C175        C176   1.534       .  S
C175        C181   1.533       .  S
C175        C179   1.536       .  S
C175        C347   1.471       .  S
C176        H183   1.087       .  S
C176        C177   1.364       .  D
C177        C178   1.540       .  S
C177        C381   1.444       .  S
C178        C182   1.542       .  S
C178        C180   1.537       .  S
C178        H184   1.112       .  S
C179        H185   1.087       .  S
C179        C180   1.365       .  D
C180        C444   1.444       .  S
C181        H186   1.087       .  S
C181        C182   1.365       .  D
C182        C325   1.449       .  S
C187        C188   1.533       .  S
C187        C193   1.534       .  S
C187        C191   1.535       .  S
C187        C338   1.473       .  S
C188        H195   1.087       .  S
C188        C189   1.364       .  D
C189        C190   1.540       .  S
C189        C432   1.444       .  S
C190        C194   1.542       .  S
C190        C192   1.536       .  S
C190        H196   1.112       .  S
C191        H197   1.087       .  S
C191        C192   1.364       .  D
C192        C457   1.441       .  S
C193        H198   1.086       .  S
C193        C194   1.366       .  D
C194        C326   1.449       .  S
C199        C200   1.537       .  S
C199        C205   1.536       .  S
C199        C203   1.534   1_545  S
C199        C321   1.508       .  S
C200        H207   1.086       .  S
C200        C201   1.364   1_545  D
C201        C202   1.536       .  S
C201        C364   1.443       .  S
C202        C206   1.543       .  S
C202        C204   1.535       .  S
C202        H208   1.112       .  S
C203        H209   1.087       .  S
C203        C204   1.359       .  D
C204        C402   1.441       .  S
C205        H210   1.084       .  S
C205        C206   1.372   1_545  D
C206        C344   1.487       .  S
C211        C212   1.534   1_655  S
C211        C217   1.534   1_565  S
C211        C215   1.538       .  S
C211        C340   1.515       .  S
C212        H219   1.087   1_455  S
C212        C213   1.360       .  D
C213        C214   1.538       .  S
C213        C365   1.442       .  S
C214        C218   1.547   1_565  S
C214        C216   1.539       .  S
C214        H220   1.110       .  S
C215        H221   1.086       .  S
C215        C216   1.367   1_655  D
C216        C411   1.446       .  S
C217        H222   1.086       .  S
C217        C218   1.367   1_655  D
C218        C317   1.484       .  S
C223        C224   1.536       .  S
C223        C229   1.532       .  S
C223        C227   1.534   1_655  S
C223        C332   1.508       .  S
C224        H231   1.086       .  S
C224        C225   1.363   1_655  D
C225        C226   1.536       .  S
C225        C415   1.441       .  S
C226        C230   1.544       .  S
C226        C228   1.538       .  S
C226        H232   1.112       .  S
C227        H233   1.087   1_455  S
C227        C228   1.360       .  D
C228        C357   1.440       .  S
C229        H234   1.085       .  S
C229        C230   1.370   1_655  D
C230        C314   1.484       .  S
C235        C236   1.533       .  S
C235        C241   1.535       .  S
C235        C239   1.533       .  S
C235        C307   1.466   1_554  S
C236        H243   1.087       .  S
C236        C237   1.361       .  D
C237        C238   1.534       .  S
C237        C385   1.437       .  S
C238        C242   1.541       .  S
C238        C240   1.539       .  S
C238        H244   1.112       .  S
C239        H245   1.087       .  S
C239        C240   1.362       .  D
C240        C461   1.442       .  S
C241        H246   1.086   1_554  S
C241        C242   1.367       .  D
C242        C311   1.450       .  S
C247        C248   1.533       .  S
C247        C253   1.531       .  S
C247        C251   1.534       .  S
C247        C303   1.469       .  S
C248        H255   1.087       .  S
C248        C249   1.363       .  D
C249        C250   1.539       .  S
C249        C425   1.441       .  S
C250        C254   1.545       .  S
C250        C252   1.543       .  S
C250        H256   1.111       .  S
C251        H257   1.087       .  S
C251        C252   1.365       .  D
C252        C445   1.449       .  S
C253        H258   1.087       .  S
C253        C254   1.364       .  D
C254        C312   1.449       .  S
In259       O261   2.233       .  S
In259       O262   2.255       .  S
In259       O270   2.242       .  S
In259       O264   2.246       .  S
In259       O266   2.236       .  S
In259       O267   2.263       .  S
In259       O268   2.247       .  S
In259       O271   2.226       .  S
C260        O266   1.259       .  A
C260        O268   1.261       .  A
C260        C301   1.432       .  S
O261        C269   1.258       .  A
O262        C269   1.262       .  A
C263        O270   1.258       .  A
C263        O264   1.259       .  A
C263        C310   1.433       .  S
C265        O267   1.262       .  A
C265        O271   1.260       .  A
C265        C322   1.475       .  S
C269        C297   1.471       .  S
In272       O274   2.261       .  S
In272       O275   2.250       .  S
In272       O283   2.252       .  S
In272       O277   2.253       .  S
In272       O279   2.237       .  S
In272       O280   2.249       .  S
In272       O281   2.243       .  S
In272       O284   2.249       .  S
C273        O279   1.260       .  A
C273        O281   1.260       .  A
C273        C302   1.432       .  S
O274        C282   1.259       .  A
O275        C282   1.261       .  A
C276        O283   1.257       .  A
C276        O277   1.258       .  A
C276        C306   1.436       .  S
C278        O280   1.260       .  A
C278        O284   1.260       .  A
C278        C313   1.472       .  S
C282        C318   1.479       .  S
C285        C286   1.532       .  S
C285        C291   1.536       .  S
C285        C289   1.538       .  S
C285        C328   1.507       .  S
C286        H293   1.087       .  S
C286        C287   1.356       .  D
C287        C288   1.533       .  S
C287        C353   1.436       .  S
C288        C292   1.546       .  S
C288        C290   1.535       .  S
C288        H294   1.109       .  S
C289        H295   1.086       .  S
C289        C290   1.366       .  D
C290        C403   1.442       .  S
C291        H296   1.086       .  S
C291        C292   1.368       .  D
C292        C298   1.484       .  S
C297        H299   1.082       .  S
C297        C298   1.342       .  D
C298        H300   1.086       .  S
C301        C302   1.204       .  T
C303        C304   1.206   1_554  T
C304        C305   1.413       .  S
C305        C306   1.206   1_655  T
C307        C308   1.205       .  T
C308        C309   1.410       .  S
C309        C310   1.204       .  T
C311        C312   1.211       .  T
C313        H315   1.086       .  S
C313        C314   1.346       .  D
C314        H316   1.087       .  S
C317        H319   1.087       .  S
C317        C318   1.343       .  D
C318        H320   1.085       .  S
C321        H323   1.087       .  S
C321        C322   1.344       .  D
C322        H324   1.086       .  S
C325        C326   1.210       .  T
C327        H329   1.086       .  S
C327        C328   1.341       .  D
C328        H330   1.087       .  S
C331        H333   1.087       .  S
C331        C332   1.342       .  D
C332        H334   1.087       .  S
C335        C336   1.208       .  T
C336        C337   1.416       .  S
C337        C338   1.208       .  T
C339        H341   1.086       .  S
C339        C340   1.345       .  D
C340        H342   1.087       .  S
C343        H345   1.083   1_565  S
C343        C344   1.347       .  D
C344        H346   1.086       .  S
C347        C348   1.208       .  T
C348        C349   1.415       .  S
C349        C350   1.207   1_545  T
C351        C352   1.205       .  T
C353        C354   1.203       .  T
C354        C355   1.407       .  S
C355        C356   1.203       .  T
C357        C358   1.205       .  T
C358        C359   1.411       .  S
C359        C360   1.205       .  T
C361        C362   1.206       .  T
C362        C363   1.413       .  S
C363        C364   1.207       .  T
C365        C366   1.206       .  T
C366        C367   1.413       .  S
C367        C368   1.206       .  T
C369        C370   1.207       .  T
C371        C372   1.210       .  T
C372        C373   1.419       .  S
C373        C374   1.210       .  T
C375        C376   1.206       .  T
C376        C377   1.412       .  S
C377        C378   1.206       .  T
C379        C380   1.208       .  T
C381        C382   1.207       .  T
C382        C383   1.414       .  S
C383        C384   1.207       .  T
C385        C386   1.203       .  T
C386        C387   1.408       .  S
C387        C388   1.203       .  T
C389        H391   1.087       .  S
C389        C390   1.346       .  D
C390        H392   1.087       .  S
C393        H395   1.085       .  S
C393        C394   1.342       .  D
C394        H396   1.088       .  S
C397        C398   1.209       .  T
C399        C400   1.206       .  T
C400        C401   1.412       .  S
C401        C402   1.206       .  T
C403        C404   1.206       .  T
C404        C405   1.412       .  S
C405        C406   1.205       .  T
C407        C408   1.208       .  T
C408        C409   1.416       .  S
C409        C410   1.208       .  T
C411        C412   1.209       .  T
C412        C413   1.417       .  S
C413        C414   1.208       .  T
C415        C416   1.206       .  T
C416        C417   1.412       .  S
C417        C418   1.205       .  T
C419        C420   1.207   1_556  T
C420        C421   1.413       .  S
C421        C422   1.206   1_455  T
C423        C424   1.209       .  T
C425        C426   1.206       .  T
C426        C427   1.412       .  S
C427        C428   1.206       .  T
C429        C430   1.208       .  T
C430        C431   1.415       .  S
C431        C432   1.208       .  T
C433        H435   1.086       .  S
C433        C434   1.344       .  D
C434        H436   1.087       .  S
C437        H439   1.087       .  S
C437        C438   1.344       .  D
C438        H440   1.086   1_655  S
C441        C442   1.207       .  T
C442        C443   1.414       .  S
C443        C444   1.207       .  T
C445        C446   1.210       .  T
C446        C447   1.420       .  S
C447        C448   1.210       .  T
C449        H451   1.082   1_655  S
C449        C450   1.345       .  D
C450        H452   1.085       .  S
C453        H455   1.087       .  S
C453        C454   1.350       .  D
C454        H456   1.082   1_545  S
C457        C458   1.205       .  T
C458        C459   1.411       .  S
C459        C460   1.206       .  T
C461        C462   1.206       .  T
C462        C463   1.412       .  S
C463        C464   1.206       .  T
C465        H467   1.085       .  S
C465        C466   1.351       .  D
C466        H468   1.082       .  S
C469        H471   1.086       .  S
C469        C470   1.348       .  D
C470        H472   1.085       .  S
