geometry optimzed in LAMMPS
_audit_creation_date              2020-12-01 
_audit_creation_method            'lammps2cif' 
_symmetry_space_group_name_H-M    'P1' 
_symmetry_Int_Tables_number       1 
_symmetry_cell_setting            triclinic 
loop_ 
_symmetry_equiv_pos_as_xyz 
  x,y,z 
_cell_length_a                    31.93158355 
_cell_length_b                    32.000391701221616 
_cell_length_c                    26.683815649283424 
_cell_angle_alpha                 89.98887247673554 
_cell_angle_beta                  90.1637230132187 
_cell_angle_gamma                 122.48316675473005 
loop_ 
_atom_site_label 
_atom_site_type_symbol 
_atom_site_fract_x 
_atom_site_fract_y 
_atom_site_fract_z 
_atom_site_charge 
C1          C  0.21392196  0.38543572  0.53743072     0.02900
C2          C  0.24395542  0.43752983  0.53455478    -0.13200
C3          C  0.23175109  0.46373002  0.50186608     0.00400
C4          C  0.19107598  0.43785490  0.46972707    -0.11800
C5          C  0.16238317  0.38610306  0.47016243     0.02900
C6          C  0.17256003  0.35999763  0.50524632    -0.11200
H7          H  0.27603790  0.45790939  0.55885726     0.08500
H8          H  0.18226976  0.45800103  0.44351212     0.06000
H9          H  0.14782854  0.32018878  0.50771122     0.05900
C10         C  0.42392471  0.16267182  0.96232516     0.02900
C11         C  0.39682505  0.12138188  0.99396367    -0.13200
C12         C  0.42147534  0.10976664  0.02957320     0.00400
C13         C  0.47345665  0.13828112  0.03223372    -0.11800
C14         C  0.50079771  0.17947210  0.00103595     0.02900
C15         C  0.47590345  0.19192656  0.96681517    -0.11200
H16         H  0.35682014  0.09793598  0.99057125     0.08500
H17         H  0.49252850  0.12886582  0.05926432     0.06000
H18         H  0.49717438  0.22384371  0.94270755     0.05900
C19         C  0.21864598  0.38222961  0.96761576     0.02900
C20         C  0.17911081  0.35561797  0.00138251    -0.13200
C21         C  0.16420566  0.38062508  0.03252586     0.00400
C22         C  0.19053161  0.43245098  0.03166149    -0.11800
C23         C  0.23090159  0.45953504  0.99958647     0.02900
C24         C  0.24507302  0.43439515  0.96777970    -0.11200
H25         H  0.15941166  0.31557532  0.00282626     0.08500
H26         H  0.17972366  0.45182858  0.05658735     0.06000
H27         H  0.27566323  0.45536317  0.94206770     0.05900
C28         C  0.67393246  0.13041016  0.53344432     0.02900
C29         C  0.64956511  0.15615098  0.53462582    -0.13200
C30         C  0.66459690  0.19682744  0.50310306     0.00400
C31         C  0.70481512  0.21236873  0.47069627    -0.11800
C32         C  0.72980338  0.18727096  0.46934764     0.02900
C33         C  0.71403100  0.14625059  0.50070201    -0.11200
H34         H  0.61953977  0.14520293  0.56081717     0.08500
H35         H  0.71568198  0.24303855  0.44538049     0.06000
H36         H  0.73298568  0.12652697  0.49952101     0.05900
C37         C  0.66926245  0.12319553  0.96967001     0.02900
C38         C  0.64325697  0.14721823  0.97080558    -0.13200
C39         C  0.65802958  0.18716014  0.00335847     0.00400
C40         C  0.69886444  0.20292899  0.03511035    -0.11800
C41         C  0.72473743  0.17874824  0.03462527     0.02900
C42         C  0.70986139  0.13896655  0.00179855    -0.11200
H43         H  0.61244394  0.13574876  0.94527729     0.08500
H44         H  0.70980614  0.23321963  0.06101860     0.06000
H45         H  0.72999894  0.12041472  0.00111792     0.05900
C46         C  0.63097965  0.21247881  0.00386272     0.80000
N47         N  0.58058578  0.18562961  0.00362744    -0.78300
C48         C  0.55534291  0.20879068  0.00312374     0.82400
N49         N  0.58073094  0.25904484  0.00257251    -0.78200
C50         C  0.63115638  0.28612114  0.00286273     0.82500
N51         N  0.65621193  0.26273863  0.00333852    -0.80000
C52         C  0.66833669  0.41797735  0.02772042     0.02900
C53         C  0.70583243  0.44364507  0.99176700    -0.13200
C54         C  0.71923105  0.41780534  0.95970022     0.00400
C55         C  0.69652907  0.36643225  0.96576330    -0.11800
C56         C  0.65824546  0.34045042  0.00048106     0.02900
C57         C  0.64449179  0.36633045  0.03145652    -0.11200
H58         H  0.72382779  0.48342569  0.98818001     0.08500
H59         H  0.70761583  0.34638124  0.94229123     0.06000
H60         H  0.61574403  0.34628209  0.05925941     0.05900
O61         O  0.99889118  0.33006090  0.29869334    -0.72000
O62         O  0.89967912  0.28226926  0.19845867    -0.72200
O63         O  0.90044019  0.28541754  0.29904745    -0.72100
O64         O  0.99816919  0.32655857  0.19787029    -0.72100
O65         O  0.99068517  0.25500496  0.20087726    -0.72000
O66         O  0.89236890  0.21366276  0.30167174    -0.72100
O67         O  0.89136962  0.21037895  0.20100148    -0.72000
O68         O  0.99151204  0.25851253  0.30156702    -0.72200
V69         V  0.94921397  0.30467992  0.24853240     1.35200
V70         V  0.94164510  0.23574628  0.25120186     1.35200
C71         C  0.01133680  0.30225688  0.31795475     0.77200
C72         C  0.87846108  0.23826036  0.18264610     0.77300
C73         C  0.87966929  0.24244331  0.31765835     0.77200
C74         C  0.01096495  0.29777936  0.18201302     0.77100
C75         C  0.22283007  0.68253269  0.47444377     0.02900
C76         C  0.24874730  0.65825972  0.47254534    -0.13200
C77         C  0.23690169  0.61930695  0.50549192     0.00400
C78         C  0.19944948  0.60498620  0.54105013    -0.11800
C79         C  0.17377923  0.62926867  0.54407811     0.02900
C80         C  0.18615407  0.66855565  0.51118635    -0.11200
H81         H  0.27731479  0.66888514  0.44457961     0.08500
H82         H  0.19084549  0.57541629  0.56707518     0.06000
H83         H  0.16698544  0.68796694  0.51399230     0.05900
C84         C  0.26303724  0.59300878  0.50281136     0.80000
N85         N  0.31339360  0.61866946  0.50202819    -0.78300
C86         C  0.33736065  0.59414194  0.50106546     0.82400
N87         N  0.31087886  0.54387629  0.50104388    -0.78200
C88         C  0.26056930  0.51809305  0.50182215     0.82500
N89         N  0.23676991  0.54273719  0.50278269    -0.80000
C90         C  0.46928503  0.63786214  0.46608617     0.02900
C91         C  0.41717031  0.60947512  0.46800752    -0.13200
C92         C  0.39176815  0.62185796  0.50131541     0.00400
C93         C  0.41848961  0.66089952  0.53497684    -0.11800
C94         C  0.47042295  0.68640300  0.53715143     0.02900
C95         C  0.49593622  0.67561758  0.50175704    -0.11200
H96         H  0.39633002  0.57897686  0.44206920     0.08500
H97         H  0.39872084  0.67065269  0.56057279     0.06000
H98         H  0.53616654  0.69674167  0.50169365     0.05900
C99         C  0.42814758  0.17694825  0.52489128     0.02900
C100        C  0.48020127  0.20411136  0.52823671    -0.13200
C101        C  0.50783393  0.19078672  0.49930145     0.00400
C102        C  0.48310129  0.14991850  0.46702635    -0.11800
C103        C  0.43116027  0.12328555  0.46196331     0.02900
C104        C  0.40392567  0.13730761  0.49095456    -0.11200
H105        H  0.49907739  0.23475361  0.55439134     0.08500
H106        H  0.50450412  0.13945116  0.44490314     0.06000
H107        H  0.36396771  0.11779756  0.48693315     0.05900
C108        C  0.63780453  0.22253434  0.50340803     0.80000
N109        N  0.58738742  0.19608770  0.50286347    -0.78300
C110        C  0.56247977  0.21965621  0.50209635     0.82400
N111        N  0.58830330  0.26996552  0.50162976    -0.78200
C112        C  0.63876424  0.29664934  0.50214775     0.82500
N113        N  0.66335377  0.27278334  0.50291181    -0.80000
C114        C  0.67870280  0.42735497  0.46613432     0.02900
C115        C  0.65124321  0.37541601  0.46914326    -0.13200
C116        C  0.66679488  0.35115011  0.50052701     0.00400
C117        C  0.70987687  0.37917296  0.52947439    -0.11800
C118        C  0.73669364  0.43114133  0.52821985     0.02900
C119        C  0.72055437  0.45510934  0.49705768    -0.11200
H120        H  0.61872402  0.35381167  0.44561675     0.08500
H121        H  0.72188287  0.36057201  0.55409097     0.06000
H122        H  0.74094454  0.49521114  0.49633275     0.05900
C123        C  0.21094546  0.67021778  0.04317669     0.02900
C124        C  0.23937066  0.64876564  0.03965013    -0.13200
C125        C  0.22542526  0.60941514  0.00631167     0.00400
C126        C  0.18346992  0.59244211  0.97566830    -0.11800
C127        C  0.15638760  0.61533715  0.97749893     0.02900
C128        C  0.16939820  0.65319472  0.01227669    -0.11200
H129        H  0.27166795  0.66208330  0.06352045     0.08500
H130        H  0.17318262  0.56296351  0.94888309     0.06000
H131        H  0.14812481  0.67052976  0.01411933     0.05900
C132        C  0.25450513  0.58608041  0.00326034     0.80000
N133        N  0.23083960  0.53599331  0.00152156    -0.78300
C134        C  0.25713788  0.51392961  0.99915414     0.82400
N135        N  0.30750080  0.54225849  0.99867169    -0.78200
C136        C  0.33150939  0.59245213  0.00028243     0.82500
N137        N  0.30492652  0.61427445  0.00268010    -0.80000
C138        C  0.46504497  0.64015660  0.03353621     0.02900
C139        C  0.49026863  0.68141182  0.00178438    -0.13200
C140        C  0.46366422  0.69388206  0.96966244     0.00400
C141        C  0.41152026  0.66450829  0.96947918    -0.11800
C142        C  0.38609414  0.62299234  0.00063403     0.02900
C143        C  0.41300251  0.61062178  0.03209544    -0.11200
H144        H  0.53049838  0.70357811  0.00187749     0.08500
H145        H  0.39068987  0.67301383  0.94386596     0.06000
H146        H  0.39340910  0.57859937  0.05639753     0.05900
O147        O  0.57281151  0.95384737  0.69557256    -0.72000
O148        O  0.52738125  0.85932756  0.79960738    -0.72200
O149        O  0.57260034  0.95740231  0.79606873    -0.72100
O150        O  0.52766127  0.85512808  0.69950645    -0.72100
O151        O  0.60066046  0.86518054  0.69889946    -0.72000
O152        O  0.64349160  0.96320580  0.80022455    -0.72100
O153        O  0.59780253  0.86406763  0.79989443    -0.72000
O154        O  0.64563875  0.96415752  0.69943963    -0.72200
V155        V  0.55158078  0.90663162  0.74760907     1.35200
V156        V  0.62058631  0.91400255  0.74956131     1.35200
C157        C  0.61703561  0.97577190  0.68007741     0.77200
C158        C  0.55446801  0.84525272  0.81740643     0.77300
C159        C  0.61533480  0.97701786  0.81534535     0.77200
C160        C  0.55665738  0.84310130  0.68258953     0.77100
O161        O  0.56900280  0.48484513  0.29949587    -0.72000
O162        O  0.52601783  0.53259307  0.19433765    -0.72200
O163        O  0.57058627  0.48217043  0.19864095    -0.72100
O164        O  0.52459158  0.53578217  0.29479657    -0.72100
O165        O  0.59813039  0.60312024  0.29811804    -0.72000
O166        O  0.64120734  0.55249736  0.19533706    -0.72100
O167        O  0.59629897  0.60347185  0.19693726    -0.72000
O168        O  0.64242369  0.55196655  0.29634877    -0.72200
V169        V  0.54897682  0.51017675  0.24686371     1.35200
V170        V  0.61819578  0.57649760  0.24665088     1.35200
C171        C  0.61294592  0.51012375  0.31598665     0.77200
C172        C  0.55359316  0.57606351  0.17773798     0.77300
C173        C  0.61337592  0.50855440  0.17965674     0.77200
C174        C  0.55388788  0.57809546  0.31358553     0.77100
O175        O  0.36878627  0.95226485  0.29570541    -0.72000
O176        O  0.31482401  0.84580844  0.20349687    -0.72200
O177        O  0.36101006  0.94382361  0.19580376    -0.72100
O178        O  0.32207684  0.85352192  0.30377843    -0.72100
O179        O  0.24977560  0.84456696  0.30541100    -0.72000
O180        O  0.29162059  0.94092028  0.20160528    -0.72100
O181        O  0.24431409  0.84104211  0.20453727    -0.72000
O182        O  0.29677752  0.94380101  0.30244772    -0.72200
V183        V  0.34018368  0.89864289  0.24986597     1.35200
V184        V  0.27188404  0.89268096  0.25335225     1.35200
C185        C  0.34203154  0.96600822  0.31496156     0.77200
C186        C  0.27085602  0.82588155  0.18762534     0.77300
C187        C  0.33344153  0.95845807  0.18086315     0.77200
C188        C  0.27946986  0.83357438  0.32317186     0.77100
O189        O  0.98306247  0.51791982  0.80875898    -0.72000
O190        O  0.90062400  0.48675788  0.69451068    -0.72200
O191        O  0.99756690  0.52610148  0.70926718    -0.72100
O192        O  0.88577149  0.47835914  0.79378233    -0.72100
O193        O  0.90103064  0.55299599  0.80076840    -0.72000
O194        O  0.00672855  0.59839376  0.70737746    -0.72100
O195        O  0.90803910  0.55816943  0.69997128    -0.72000
O196        O  0.99920046  0.59304430  0.80759768    -0.72200
V197        V  0.94199287  0.50372030  0.75165764     1.35200
V198        V  0.95349192  0.57431496  0.75383554     1.35200
C199        C  0.00595478  0.56108944  0.82709436     0.77200
C200        C  0.88927519  0.51659055  0.67849916     0.77300
C201        C  0.02063225  0.57004618  0.69300713     0.77200
C202        C  0.87529934  0.50775029  0.81286880     0.77100
O203        O  0.32337645  0.31694495  0.80318117    -0.72000
O204        O  0.36100819  0.27243286  0.69110895    -0.72200
O205        O  0.31564071  0.32186343  0.70404603    -0.72100
O206        O  0.36820914  0.26681692  0.79064586    -0.72100
O207        O  0.29458922  0.20017690  0.79765485    -0.72000
O208        O  0.24645412  0.25002440  0.69912191    -0.72100
O209        O  0.29265969  0.20015514  0.69648357    -0.72000
O210        O  0.24937173  0.25078249  0.80010748    -0.72200
V211        V  0.34070619  0.29314583  0.74725817     1.35200
V212        V  0.27198944  0.22644360  0.74829949     1.35200
C213        C  0.27973203  0.29241328  0.82009531     0.77200
C214        C  0.33418603  0.22842232  0.67546345     0.77300
C215        C  0.27237732  0.29496386  0.68613361     0.77200
C216        C  0.33988591  0.22463969  0.81003859     0.77100
C217        C  0.52499129  0.73640318  0.90102423    -0.09400
C218        C  0.49013936  0.73546799  0.93383113     0.06800
C219        C  0.47921687  0.77256287  0.92977072    -0.03100
C220        C  0.50147751  0.80830144  0.89219723    -0.07600
C221        C  0.53516695  0.80841974  0.85833555     0.05900
C222        C  0.54742606  0.77233961  0.86340542    -0.02600
Br223      Br  0.59079765  0.76727033  0.81767910    -0.02300
H224        H  0.53338902  0.70785795  0.90344844     0.09800
H225        H  0.49227520  0.83625229  0.88940912     0.07900
Br226      Br  0.43547204  0.77739082  0.97528777    -0.02700
C227        C  0.54456828  0.64215484  0.14086576    -0.09400
C228        C  0.53548607  0.59418624  0.13756928     0.06800
C229        C  0.50638483  0.56314728  0.09758760    -0.03100
C230        C  0.48514717  0.57950691  0.06325319    -0.07600
C231        C  0.49243250  0.62663605  0.06774855     0.05900
C232        C  0.52299199  0.65840165  0.10659249    -0.02600
Br233      Br  0.53270462  0.72233842  0.11735652    -0.02300
H234        H  0.56656251  0.66620989  0.17155285     0.09800
H235        H  0.46225879  0.55506308  0.03317041     0.07900
Br236      Br  0.49546434  0.49862128  0.08695405    -0.02700
C237        C  0.19373676  0.70341999  0.11917412    -0.09400
C238        C  0.22496546  0.71105783  0.07858227     0.06800
C239        C  0.26908011  0.75755245  0.07229834    -0.03100
C240        C  0.28269915  0.79474971  0.10784548    -0.07600
C241        C  0.25235746  0.78677862  0.14932359     0.05900
C242        C  0.20706036  0.74094780  0.15451180    -0.02600
Br243      Br  0.16422829  0.72645334  0.21094271    -0.02300
H244        H  0.15949260  0.66778612  0.12396961     0.09800
H245        H  0.31720306  0.83017757  0.10307658     0.07900
Br246      Br  0.31087153  0.77248166  0.01488065    -0.02700
C247        C  0.07338655  0.55461361  0.94145272    -0.09400
C248        C  0.11664535  0.60212386  0.94072707     0.06800
C249        C  0.12191241  0.63648608  0.90432454    -0.03100
C250        C  0.08454512  0.62272855  0.86881958    -0.07600
C251        C  0.04174521  0.57481535  0.86849715     0.05900
C252        C  0.03575444  0.54083621  0.90596978    -0.02600
Br253      Br  0.97622005  0.47636944  0.91233554    -0.02300
H254        H  0.06880387  0.52831232  0.96990666     0.09800
H255        H  0.08984570  0.64915037  0.84017614     0.07900
Br256      Br  0.18085407  0.70157377  0.89927548    -0.02700
C257        C  0.85725568  0.47478225  0.59666908    -0.09400
C258        C  0.85430735  0.50205982  0.63616853     0.06800
C259        C  0.81551400  0.51090134  0.63631044    -0.03100
C260        C  0.77877381  0.48964701  0.59911904    -0.07600
C261        C  0.78019868  0.45985159  0.56146111     0.05900
C262        C  0.82096788  0.45425435  0.55917587    -0.02600
Br263      Br  0.82890415  0.41942069  0.50529383    -0.02300
H264        H  0.88752144  0.46872195  0.59542248     0.09800
H265        H  0.74762785  0.49430789  0.60106520     0.07900
Br266      Br  0.80767429  0.54698491  0.68898793    -0.02700
C267        C  0.61429709  0.43981942  0.43026058    -0.09400
C268        C  0.66353980  0.45191535  0.42988777     0.06800
C269        C  0.69627994  0.48457875  0.39290542    -0.03100
C270        C  0.67933997  0.50415429  0.35715297    -0.07600
C271        C  0.62971705  0.49096674  0.35661852     0.05900
C272        C  0.59714561  0.45886523  0.39416320    -0.02600
Br273      Br  0.52937021  0.44069132  0.39965532    -0.02300
H274        H  0.58888245  0.41503141  0.45866131     0.09800
H275        H  0.70468846  0.52834768  0.32839783     0.07900
Br276      Br  0.76309585  0.50023150  0.38624085    -0.02700
C277        C  0.38186806  0.24650600  0.59675543    -0.09400
C278        C  0.35222894  0.21176363  0.63368743     0.06800
C279        C  0.34457493  0.16404497  0.63187523    -0.03100
C280        C  0.36777986  0.15266869  0.59457643    -0.07600
C281        C  0.39915942  0.18828822  0.55918125     0.05900
C282        C  0.40521270  0.23519922  0.55979333    -0.02600
Br283      Br  0.44488205  0.28505199  0.51094824    -0.02300
H284        H  0.38771941  0.28314122  0.59719128     0.09800
H285        H  0.36322664  0.11658361  0.59465185     0.07900
Br286      Br  0.30756629  0.11478643  0.68209581    -0.02700
C287        C  0.42635148  0.09081693  0.37595362    -0.09400
C288        C  0.40632014  0.08258212  0.42449863     0.06800
C289        C  0.36426148  0.03552174  0.43621956    -0.03100
C290        C  0.34257711  0.99856707  0.39935973    -0.07600
C291        C  0.36338035  0.00684746  0.35141789     0.05900
C292        C  0.40585049  0.05324575  0.33989820    -0.02600
Br293      Br  0.43684252  0.06745408  0.27523647    -0.02300
H294        H  0.45842379  0.12661555  0.36606433     0.09800
H295        H  0.31068856  0.96247861  0.40882453     0.07900
Br296      Br  0.33781997  0.01751182  0.50281359    -0.02700
C297        C  0.53261574  0.77401760  0.56043668    -0.09400
C298        C  0.49714370  0.72542399  0.57552403     0.06800
C299        C  0.48438152  0.71572151  0.62673641    -0.03100
C300        C  0.50489609  0.75466293  0.66116693    -0.07600
C301        C  0.53882824  0.80323603  0.64567803     0.05900
C302        C  0.55351023  0.81291313  0.59521572    -0.02600
Br303      Br  0.59908200  0.87902132  0.57180882    -0.02300
H304        H  0.54250814  0.78203079  0.52127175     0.09800
H305        H  0.49415131  0.74706879  0.70019848     0.07900
Br306      Br  0.43991317  0.65003175  0.65212095    -0.02700
C307        C  0.50137284  0.60929479  0.33914854    -0.09400
C308        C  0.53637887  0.59768256  0.35233444     0.06800
C309        C  0.55265023  0.60338274  0.40239089    -0.03100
C310        C  0.53161536  0.61793601  0.43908163    -0.07600
C311        C  0.49500032  0.62776260  0.42623333     0.05900
C312        C  0.48144855  0.62524347  0.37533860    -0.02600
Br313      Br  0.43780060  0.64545499  0.35258388    -0.02300
H314        H  0.48974639  0.60625212  0.30043546     0.09800
H315        H  0.54278269  0.62015788  0.47783450     0.07900
Br316      Br  0.60141815  0.58910794  0.42253917    -0.02700
C317        C  0.28522674  0.76191300  0.43394937    -0.09400
C318        C  0.23541909  0.72309019  0.43847080     0.06800
C319        C  0.19956933  0.72282937  0.40705031    -0.03100
C320        C  0.21440428  0.75996166  0.37082670    -0.07600
C321        C  0.26466137  0.79764876  0.36491434     0.05900
C322        C  0.30002837  0.79907919  0.39807053    -0.02600
Br323      Br  0.36887775  0.85169234  0.39822784    -0.00500
H324        H  0.31298805  0.76326084  0.45857711     0.09800
H325        H  0.18664663  0.75829065  0.34595488     0.07900
Br326      Br  0.13054908  0.67087290  0.40896115    -0.02700
C327        C  0.13837976  0.64904723  0.61663476    -0.09400
C328        C  0.13453864  0.61393699  0.58220716     0.06800
C329        C  0.09371677  0.56460903  0.58529511    -0.03100
C330        C  0.05780943  0.55133575  0.62220985    -0.07600
C331        C  0.06118375  0.58642050  0.65634064     0.05900
C332        C  0.10232101  0.63571552  0.65368182    -0.02600
Br333      Br  0.11314464  0.68559230  0.70129314    -0.02300
H334        H  0.17004531  0.68684596  0.61519176     0.09800
H335        H  0.02629824  0.51343636  0.62340795     0.07900
Br336      Br  0.08318176  0.51427065  0.53835981    -0.02700
C337        C  0.80405209  0.48550104  0.93334200    -0.09400
C338        C  0.75735991  0.44411313  0.92026358     0.06800
C339        C  0.74873406  0.42708125  0.87013403    -0.03100
C340        C  0.78740836  0.44908118  0.83536152    -0.07600
C341        C  0.83442113  0.48916792  0.84902858     0.05900
C342        C  0.84239971  0.50819411  0.89810411    -0.02600
Br343      Br  0.90614834  0.56220288  0.91989960    -0.02300
H344        H  0.81129329  0.49910825  0.97154812     0.09800
H345        H  0.78077867  0.43481641  0.79740454     0.07900
Br346      Br  0.68455150  0.37538283  0.84628410    -0.02700
C347        C  0.69166862  0.48173949  0.09396962    -0.09400
C348        C  0.65488262  0.44470906  0.06291835     0.06800
C349        C  0.60526037  0.43116988  0.06874831    -0.03100
C350        C  0.59288010  0.45251379  0.10689960    -0.07600
C351        C  0.62930179  0.48840402  0.13918359     0.05900
C352        C  0.67943311  0.50376466  0.13175870    -0.02600
Br353      Br  0.73250180  0.55179241  0.17386049    -0.02300
H354        H  0.72993777  0.49236872  0.08993223     0.09800
H355        H  0.55442587  0.44120975  0.11104014     0.07900
Br356      Br  0.55321750  0.38524528  0.02435119    -0.02700
C357        C  0.76224590  0.15852529  0.10432792    -0.09400
C358        C  0.76587080  0.19355839  0.07010154     0.06800
C359        C  0.80782451  0.24218891  0.07129960    -0.03100
C360        C  0.84420268  0.25560499  0.10794804    -0.07600
C361        C  0.84011613  0.22096902  0.14321109     0.05900
C362        C  0.79896685  0.17167110  0.14058659    -0.02600
Br363      Br  0.78870378  0.12113951  0.18676892    -0.02300
H364        H  0.73004245  0.12098556  0.10355727     0.09800
H365        H  0.87608707  0.29331994  0.10864471     0.07900
Br366      Br  0.81828288  0.29093941  0.02243339    -0.02700
C367        C  0.59542079  0.00695414  0.89136186    -0.09400
C368        C  0.63083812  0.01390237  0.85567724     0.06800
C369        C  0.67971999  0.05557846  0.85958436    -0.03100
C370        C  0.69176184  0.09019488  0.89773924    -0.07600
C371        C  0.65595138  0.08378363  0.93258730     0.05900
C372        C  0.60774479  0.04112079  0.92998170    -0.02600
Br373      Br  0.55824472  0.02655639  0.97956991    -0.02300
H374        H  0.55811067  0.97439152  0.88961030     0.09800
H375        H  0.72893880  0.12296266  0.89946522     0.07900
Br376      Br  0.73072698  0.06918495  0.81234837    -0.02700
C377        C  0.76659381  0.16530002  0.40036864    -0.09400
C378        C  0.77004521  0.20156799  0.43270418     0.06800
C379        C  0.81113858  0.25061372  0.42866616    -0.03100
C380        C  0.84598295  0.26307769  0.39067096    -0.07600
C381        C  0.84207388  0.22698313  0.35757426     0.05900
C382        C  0.80237753  0.17729321  0.36359517    -0.02600
Br383      Br  0.79314142  0.12405179  0.32209264    -0.02300
H384        H  0.73533571  0.12732892  0.40328080     0.09800
H385        H  0.87695270  0.30116444  0.38765909     0.07900
Br386      Br  0.82350238  0.30097321  0.47626448    -0.02700
C387        C  0.59724749  0.01251335  0.60928473    -0.09400
C388        C  0.63362831  0.01375491  0.64024666     0.06800
C389        C  0.68383861  0.05206016  0.63325014    -0.03100
C390        C  0.69604456  0.08907057  0.59775433    -0.07600
C391        C  0.65934186  0.08863836  0.56820546     0.05900
C392        C  0.60960870  0.04901197  0.57328699    -0.02600
Br393      Br  0.55720692  0.04114586  0.53066638    -0.02300
H394        H  0.55867060  0.98272942  0.61291520     0.09800
H395        H  0.73448568  0.11916852  0.59406611     0.07900
Br396      Br  0.73758116  0.05809805  0.67197017    -0.02700
C397        C  0.12213503  0.32357047  0.10453114    -0.09400
C398        C  0.12134405  0.35351082  0.06657974     0.06800
C399        C  0.08181900  0.36114852  0.06463605    -0.03100
C400        C  0.04598680  0.34196160  0.10224979    -0.07600
C401        C  0.04790567  0.31396463  0.14158084     0.05900
C402        C  0.08565550  0.30357590  0.14186604    -0.02600
Br403      Br  0.09190975  0.26632113  0.19447916    -0.02300
H404        H  0.15241638  0.31753709  0.10637697     0.09800
H405        H  0.01640853  0.34906038  0.10080803     0.07900
Br406      Br  0.07461251  0.39686654  0.01092812    -0.02700
C407        C  0.28299130  0.37156938  0.92863046    -0.09400
C408        C  0.23286604  0.35620833  0.93203594     0.06800
C409        C  0.19810955  0.31825104  0.89974171    -0.03100
C410        C  0.21394493  0.29665602  0.86518728    -0.07600
C411        C  0.26433293  0.31295699  0.86082406     0.05900
C412        C  0.29904482  0.35077695  0.89348418    -0.02600
Br413      Br  0.36892404  0.37594753  0.89323849    -0.02300
H414        H  0.31009426  0.40045032  0.95332239     0.09800
H415        H  0.18684097  0.26840994  0.83999921     0.07900
Br416      Br  0.12948933  0.29768576  0.89714909    -0.02700
C417        C  0.33869420  0.19434130  0.89564517    -0.09400
C418        C  0.35899837  0.20513644  0.84735479     0.06800
C419        C  0.39873778  0.19953081  0.83639272    -0.03100
C420        C  0.41806901  0.18400776  0.87389192    -0.07600
C421        C  0.39909607  0.17484201  0.92298310     0.05900
C422        C  0.35881480  0.18007253  0.93363948    -0.02600
Br423      Br  0.33296325  0.17343293  0.00004900    -0.02300
H424        H  0.30849118  0.19927648  0.90443327     0.09800
H425        H  0.44859251  0.17968226  0.86479756     0.07900
Br426      Br  0.42705286  0.21170014  0.77054840    -0.02700
C427        C  0.37102870  0.98795114  0.09701430    -0.09400
C428        C  0.35050273  0.99517864  0.14009861     0.06800
C429        C  0.35036940  0.03899947  0.14482779    -0.03100
C430        C  0.37184703  0.07521659  0.10732238    -0.07600
C431        C  0.39344419  0.06836871  0.06494740     0.05900
C432        C  0.39207793  0.02395838  0.05944240    -0.02600
Br433      Br  0.41897778  0.01136760  0.00137928    -0.02300
H434        H  0.37117875  0.95433595  0.09284811     0.09800
H435        H  0.37338986  0.10965455  0.11210801     0.07900
Br436      Br  0.32582136  0.05327730  0.20371280    -0.02700
C437        C  0.08145695  0.36622145  0.43665054    -0.09400
C438        C  0.12161724  0.36008317  0.43367005     0.06800
C439        C  0.12464881  0.33362318  0.39314213    -0.03100
C440        C  0.08738418  0.31338065  0.35652668    -0.07600
C441        C  0.04786287  0.32062498  0.35889080     0.05900
C442        C  0.04479503  0.34694341  0.39960023    -0.02600
Br443      Br  0.99087793  0.35673494  0.40726898    -0.02300
H444        H  0.07917386  0.38693307  0.46748386     0.09800
H445        H  0.09042549  0.29386082  0.32498319     0.07900
Br446      Br  0.18116549  0.32841556  0.38348806    -0.02700
C447        C  0.23821425  0.37907680  0.62464204    -0.09400
C448        C  0.22492250  0.35885336  0.57600398     0.06800
C449        C  0.22452688  0.31525146  0.56541654    -0.03100
C450        C  0.23762917  0.29357179  0.60278024    -0.07600
C451        C  0.25319957  0.31549007  0.65014294     0.05900
C452        C  0.25304475  0.35832578  0.66121017    -0.02600
Br453      Br  0.27203994  0.38934555  0.72598715    -0.02300
H454        H  0.23779274  0.41174499  0.63417525     0.09800
H455        H  0.23828647  0.26087433  0.59395204     0.07900
Br456      Br  0.21222003  0.28606975  0.49994163    -0.02700
loop_ 
_geom_bond_atom_site_label_1 
_geom_bond_atom_site_label_2 
_geom_bond_distance 
_geom_bond_site_symmetry_2 
_ccdc_geom_bond_type 
C1            C2   1.410       .  A
C1            C6   1.408       .  A
C1          C448   1.492       .  S
C2            C3   1.402       .  A
C2            H7   1.084       .  S
C3            C4   1.395       .  A
C3           C88   1.468       .  S
C4            C5   1.397       .  A
C4            H8   1.085       .  S
C5            C6   1.403       .  A
C5          C438   1.471       .  S
C6            H9   1.082       .  S
C10          C11   1.408       .  A
C10          C15   1.406       .  A
C10         C421   1.486       .  S
C11          C12   1.404   1_556  A
C11          H16   1.083       .  S
C12          C13   1.402       .  A
C12         C431   1.476       .  S
C13          C14   1.400       .  A
C13          H17   1.085       .  S
C14          C15   1.400   1_554  A
C14          C48   1.470       .  S
C15          H18   1.084       .  S
C19          C20   1.408   1_556  A
C19          C24   1.409       .  A
C19         C408   1.487       .  S
C20          C21   1.403       .  A
C20          H25   1.083       .  S
C21          C22   1.400       .  A
C21         C398   1.478       .  S
C22          C23   1.397   1_554  A
C22          H26   1.085       .  S
C23          C24   1.402       .  A
C23         C134   1.472       .  S
C24          H27   1.084       .  S
C28          C29   1.405       .  A
C28          C33   1.403       .  A
C28         C391   1.482       .  S
C29          C30   1.401       .  A
C29          H34   1.083       .  S
C30          C31   1.402       .  A
C30         C108   1.471       .  S
C31          C32   1.404       .  A
C31          H35   1.084       .  S
C32          C33   1.403       .  A
C32         C378   1.481       .  S
C33          H36   1.084       .  S
C37          C38   1.403       .  A
C37          C42   1.400   1_556  A
C37         C371   1.474       .  S
C38          C39   1.400   1_556  A
C38          H43   1.084       .  S
C39          C40   1.400       .  A
C39          C46   1.468       .  S
C40          C41   1.403       .  A
C40          H44   1.084       .  S
C41          C42   1.401       .  A
C41         C358   1.473       .  S
C42          H45   1.085       .  S
C46          N47   1.357       .  A
C46          N51   1.358       .  A
N47          C48   1.357       .  A
C48          N49   1.358       .  A
N49          C50   1.358       .  A
C50          C56   1.470       .  S
C50          N51   1.358       .  A
C52          C53   1.407   1_554  A
C52          C57   1.404       .  A
C52         C348   1.482       .  S
C53          C54   1.408       .  A
C53          H58   1.084       .  S
C54          C55   1.405       .  A
C54         C338   1.485       .  S
C55          C56   1.399   1_556  A
C55          H59   1.084       .  S
C56          C57   1.398       .  A
C57          H60   1.084       .  S
O61          V69   1.890       .  S
O61          C71   1.262   1_655  A
O62          V69   1.890       .  S
O62          C72   1.263       .  A
O63          V69   1.898       .  S
O63          C73   1.265       .  A
O64          V69   1.897       .  S
O64          C74   1.265   1_655  A
O65          V70   1.900       .  S
O65          C74   1.263   1_655  A
O66          V70   1.899       .  S
O66          C73   1.264       .  A
O67          V70   1.902       .  S
O67          C72   1.265       .  A
O68          V70   1.901       .  S
O68          C71   1.264   1_655  A
V69          V70   2.087       .  T
C71         C441   1.468       .  S
C72         C361   1.476       .  S
C73         C381   1.480       .  S
C74         C401   1.475       .  S
C75          C76   1.408       .  A
C75          C80   1.406       .  A
C75         C318   1.486       .  S
C76          C77   1.402       .  A
C76          H81   1.084       .  S
C77          C78   1.399       .  A
C77          C84   1.471       .  S
C78          C79   1.402       .  A
C78          H82   1.084       .  S
C79          C80   1.405       .  A
C79         C328   1.481       .  S
C80          H83   1.084       .  S
C84          N85   1.357       .  A
C84          N89   1.357       .  A
N85          C86   1.359       .  A
C86          C92   1.466       .  S
C86          N87   1.357       .  A
N87          C88   1.356       .  A
C88          N89   1.358       .  A
C90          C91   1.405       .  A
C90          C95   1.408       .  A
C90         C311   1.483       .  S
C91          C92   1.398       .  A
C91          H96   1.084       .  S
C92          C93   1.395       .  A
C93          C94   1.402       .  A
C93          H97   1.085       .  S
C94          C95   1.408       .  A
C94         C298   1.479       .  S
C95          H98   1.084       .  S
C99         C100   1.405       .  A
C99         C104   1.404       .  A
C99         C281   1.480       .  S
C100        C101   1.402       .  A
C100        H105   1.084       .  S
C101        C102   1.401       .  A
C101        C110   1.474       .  S
C102        C103   1.406       .  A
C102        H106   1.084       .  S
C103        C104   1.407       .  A
C103        C288   1.487       .  S
C104        H107   1.083       .  S
C108        N109   1.358       .  A
C108        N113   1.357       .  A
N109        C110   1.359       .  A
C110        N111   1.359       .  A
N111        C112   1.359       .  A
C112        C116   1.472       .  S
C112        N113   1.358       .  A
C114        C115   1.405       .  A
C114        C119   1.405       .  A
C114        C268   1.481       .  S
C115        C116   1.401       .  A
C115        H120   1.084       .  S
C116        C117   1.401       .  A
C117        C118   1.404       .  A
C117        H121   1.085       .  S
C118        C119   1.403       .  A
C118        C261   1.478       .  S
C119        H122   1.083       .  S
C123        C124   1.405       .  A
C123        C128   1.398       .  A
C123        C238   1.473       .  S
C124        C125   1.404       .  A
C124        H129   1.084       .  S
C125        C126   1.404   1_554  A
C125        C132   1.474       .  S
C126        C127   1.403       .  A
C126        H130   1.084       .  S
C127        C128   1.400   1_556  A
C127        C248   1.473       .  S
C128        H131   1.085       .  S
C132        N133   1.357       .  A
C132        N137   1.359       .  A
N133        C134   1.358   1_554  A
C134        N135   1.357       .  A
N135        C136   1.359   1_556  A
C136        C142   1.471       .  S
C136        N137   1.360       .  A
C138        C139   1.404       .  A
C138        C143   1.403       .  A
C138        C231   1.479       .  S
C139        C140   1.406   1_554  A
C139        H144   1.084       .  S
C140        C141   1.405       .  A
C140        C218   1.482       .  S
C141        C142   1.400   1_556  A
C141        H145   1.084       .  S
C142        C143   1.400       .  A
C143        H146   1.084       .  S
O147        V155   1.891       .  S
O147        C157   1.263       .  A
O148        V155   1.887       .  S
O148        C158   1.262       .  A
O149        V155   1.894       .  S
O149        C159   1.264       .  A
O150        V155   1.895       .  S
O150        C160   1.263       .  A
O151        V156   1.898       .  S
O151        C160   1.262       .  A
O152        V156   1.897       .  S
O152        C159   1.263       .  A
O153        V156   1.909       .  S
O153        C158   1.267       .  A
O154        V156   1.905       .  S
O154        C157   1.265       .  A
V155        V156   2.087       .  T
C157        C388   1.483   1_565  S
C158        C221   1.478       .  S
C159        C368   1.472   1_565  S
C160        C301   1.462       .  S
O161        V169   1.895       .  S
O161        C171   1.263       .  A
O162        V169   1.891       .  S
O162        C172   1.262       .  A
O163        V169   1.899       .  S
O163        C173   1.265       .  A
O164        V169   1.899       .  S
O164        C174   1.264       .  A
O165        V170   1.901       .  S
O165        C174   1.263       .  A
O166        V170   1.902       .  S
O166        C173   1.264       .  A
O167        V170   1.907       .  S
O167        C172   1.266       .  A
O168        V170   1.902       .  S
O168        C171   1.266       .  A
V169        V170   2.086       .  T
C171        C271   1.479       .  S
C172        C228   1.475       .  S
C173        C351   1.482       .  S
C174        C308   1.468       .  S
O175        V183   1.894       .  S
O175        C185   1.262       .  A
O176        V183   1.889       .  S
O176        C186   1.262       .  A
O177        V183   1.894       .  S
O177        C187   1.263       .  A
O178        V183   1.896       .  S
O178        C188   1.264       .  A
O179        V184   1.907       .  S
O179        C188   1.266       .  A
O180        V184   1.909       .  S
O180        C187   1.266       .  A
O181        V184   1.906       .  S
O181        C186   1.265       .  A
O182        V184   1.903       .  S
O182        C185   1.265       .  A
V183        V184   2.087       .  T
C185        C291   1.469   1_565  S
C186        C241   1.471       .  S
C187        C428   1.475       .  S
C188        C321   1.485       .  S
O189        V197   1.896       .  S
O189        C199   1.263   1_655  A
O190        V197   1.893       .  S
O190        C200   1.263       .  A
O191        V197   1.894       .  S
O191        C201   1.264   1_655  A
O192        V197   1.895       .  S
O192        C202   1.263       .  A
O193        V198   1.904       .  S
O193        C202   1.265       .  A
O194        V198   1.904   1_455  S
O194        C201   1.265       .  A
O195        V198   1.903       .  S
O195        C200   1.265       .  A
O196        V198   1.896       .  S
O196        C199   1.264   1_655  A
V197        V198   2.086       .  T
C199        C251   1.474       .  S
C200        C258   1.475       .  S
C201        C331   1.479       .  S
C202        C341   1.470       .  S
O203        V211   1.890       .  S
O203        C213   1.261       .  A
O204        V211   1.890       .  S
O204        C214   1.262       .  A
O205        V211   1.897       .  S
O205        C215   1.264       .  A
O206        V211   1.900       .  S
O206        C216   1.264       .  A
O207        V212   1.899       .  S
O207        C216   1.263       .  A
O208        V212   1.900       .  S
O208        C215   1.263       .  A
O209        V212   1.912       .  S
O209        C214   1.268       .  A
O210        V212   1.910       .  S
O210        C213   1.269       .  A
V211        V212   2.084       .  T
C213        C411   1.485       .  S
C214        C278   1.481       .  S
C215        C451   1.469       .  S
C216        C418   1.469       .  S
C217        C218   1.406       .  A
C217        C222   1.401       .  A
C217        H224   1.083       .  S
C218        C219   1.410       .  A
C219        C220   1.396       .  A
C219       Br226   1.921       .  S
C220        C221   1.405       .  A
C220        H225   1.084       .  S
C221        C222   1.411       .  A
C222       Br223   1.919       .  S
C227        C228   1.404       .  A
C227        C232   1.401       .  A
C227        H234   1.083       .  S
C228        C229   1.411       .  A
C229        C230   1.397       .  A
C229       Br236   1.921       .  S
C230        C231   1.402       .  A
C230        H235   1.083       .  S
C231        C232   1.410       .  A
C232       Br233   1.919       .  S
C237        C238   1.404       .  A
C237        C242   1.401       .  A
C237        H244   1.083       .  S
C238        C239   1.406       .  A
C239        C240   1.396       .  A
C239       Br246   1.919       .  S
C240        C241   1.403       .  A
C240        H245   1.084       .  S
C241        C242   1.409       .  A
C242       Br243   1.919       .  S
C247        C248   1.402       .  A
C247        C252   1.400       .  A
C247        H254   1.084       .  S
C248        C249   1.408       .  A
C249        C250   1.394       .  A
C249       Br256   1.921       .  S
C250        C251   1.403       .  A
C250        H255   1.084       .  S
C251        C252   1.413       .  A
C252       Br253   1.920   1_455  S
C257        C258   1.404       .  A
C257        C262   1.397       .  A
C257        H264   1.084       .  S
C258        C259   1.411       .  A
C259        C260   1.400       .  A
C259       Br266   1.920       .  S
C260        C261   1.403       .  A
C260        H265   1.083       .  S
C261        C262   1.408       .  A
C262       Br263   1.918       .  S
C267        C268   1.403       .  A
C267        C272   1.398       .  A
C267        H274   1.083       .  S
C268        C269   1.411       .  A
C269        C270   1.399       .  A
C269       Br276   1.921       .  S
C270        C271   1.404       .  A
C270        H275   1.083       .  S
C271        C272   1.414       .  A
C272       Br273   1.922       .  S
C277        C278   1.406       .  A
C277        C282   1.398       .  A
C277        H284   1.084       .  S
C278        C279   1.412       .  A
C279        C280   1.402       .  A
C279       Br286   1.919       .  S
C280        C281   1.405       .  A
C280        H285   1.084       .  S
C281        C282   1.407       .  A
C282       Br283   1.920       .  S
C287        C288   1.407       .  A
C287        C292   1.397       .  A
C287        H294   1.083       .  S
C288        C289   1.414       .  A
C289        C290   1.401   1_545  A
C289       Br296   1.920       .  S
C290        C291   1.401   1_565  A
C290        H295   1.083       .  S
C291        C292   1.406       .  A
C292       Br293   1.921       .  S
C297        C298   1.405       .  A
C297        C302   1.400       .  A
C297        H304   1.083       .  S
C298        C299   1.413       .  A
C299        C300   1.395       .  A
C299       Br306   1.922       .  S
C300        C301   1.398       .  A
C300        H305   1.083       .  S
C301        C302   1.406       .  A
C302       Br303   1.919       .  S
C307        C308   1.398       .  A
C307        C312   1.397       .  A
C307        H314   1.083       .  S
C308        C309   1.408       .  A
C309        C310   1.402       .  A
C309       Br316   1.919       .  S
C310        C311   1.406       .  A
C310        H315   1.083       .  S
C311        C312   1.413       .  A
C312       Br313   1.922       .  S
C317        C318   1.402       .  A
C317        C322   1.397       .  A
C317        H324   1.084       .  S
C318        C319   1.413       .  A
C319        C320   1.403       .  A
C319       Br326   1.921       .  S
C320        C321   1.406       .  A
C320        H325   1.084       .  S
C321        C322   1.414       .  A
C322       Br323   1.921       .  S
C327        C328   1.405       .  A
C327        C332   1.401       .  A
C327        H334   1.083       .  S
C328        C329   1.410       .  A
C329        C330   1.396       .  A
C329       Br336   1.922       .  S
C330        C331   1.404       .  A
C330        H335   1.083       .  S
C331        C332   1.412       .  A
C332       Br333   1.920       .  S
C337        C338   1.405       .  A
C337        C342   1.401       .  A
C337        H344   1.083       .  S
C338        C339   1.414       .  A
C339        C340   1.398       .  A
C339       Br346   1.922       .  S
C340        C341   1.400       .  A
C340        H345   1.084       .  S
C341        C342   1.408       .  A
C342       Br343   1.919       .  S
C347        C348   1.404       .  A
C347        C352   1.402       .  A
C347        H354   1.084       .  S
C348        C349   1.409       .  A
C349        C350   1.397       .  A
C349       Br356   1.921       .  S
C350        C351   1.405       .  A
C350        H355   1.084       .  S
C351        C352   1.414       .  A
C352       Br353   1.920       .  S
C357        C358   1.402       .  A
C357        C362   1.397       .  A
C357        H364   1.084       .  S
C358        C359   1.406       .  A
C359        C360   1.396       .  A
C359       Br366   1.920       .  S
C360        C361   1.406       .  A
C360        H365   1.083       .  S
C361        C362   1.412       .  A
C362       Br363   1.917       .  S
C367        C368   1.404       .  A
C367        C372   1.396       .  A
C367        H374   1.083   1_545  S
C368        C369   1.410       .  A
C369        C370   1.397       .  A
C369       Br376   1.919       .  S
C370        C371   1.403       .  A
C370        H375   1.083       .  S
C371        C372   1.407       .  A
C372       Br373   1.920       .  S
C377        C378   1.402       .  A
C377        C382   1.397       .  A
C377        H384   1.085       .  S
C378        C379   1.409       .  A
C379        C380   1.398       .  A
C379       Br386   1.918       .  S
C380        C381   1.405       .  A
C380        H385   1.084       .  S
C381        C382   1.413       .  A
C382       Br383   1.917       .  S
C387        C388   1.407       .  A
C387        C392   1.396       .  A
C387        H394   1.084   1_545  S
C388        C389   1.414       .  A
C389        C390   1.399       .  A
C389       Br396   1.919       .  S
C390        C391   1.405       .  A
C390        H395   1.084       .  S
C391        C392   1.409       .  A
C392       Br393   1.922       .  S
C397        C398   1.403       .  A
C397        C402   1.402       .  A
C397        H404   1.084       .  S
C398        C399   1.409       .  A
C399        C400   1.395       .  A
C399       Br406   1.922       .  S
C400        C401   1.402       .  A
C400        H405   1.084       .  S
C401        C402   1.412       .  A
C402       Br403   1.920       .  S
C407        C408   1.403       .  A
C407        C412   1.398       .  A
C407        H414   1.084       .  S
C408        C409   1.413       .  A
C409        C410   1.401       .  A
C409       Br416   1.921       .  S
C410        C411   1.405       .  A
C410        H415   1.084       .  S
C411        C412   1.417       .  A
C412       Br413   1.923       .  S
C417        C418   1.401       .  A
C417        C422   1.400       .  A
C417        H424   1.084       .  S
C418        C419   1.405       .  A
C419        C420   1.398       .  A
C419       Br426   1.920       .  S
C420        C421   1.408       .  A
C420        H425   1.084       .  S
C421        C422   1.413       .  A
C422       Br423   1.920   1_556  S
C427        C428   1.404       .  A
C427        C432   1.399   1_565  A
C427        H434   1.084       .  S
C428        C429   1.410   1_565  A
C429        C430   1.402       .  A
C429       Br436   1.919       .  S
C430        C431   1.403       .  A
C430        H435   1.084       .  S
C431        C432   1.406       .  A
C432       Br433   1.918       .  S
C437        C438   1.400       .  A
C437        C442   1.395       .  A
C437        H444   1.083       .  S
C438        C439   1.409       .  A
C439        C440   1.399       .  A
C439       Br446   1.917       .  S
C440        C441   1.402       .  A
C440        H445   1.083       .  S
C441        C442   1.410       .  A
C442       Br443   1.920   1_455  S
C447        C448   1.409       .  A
C447        C452   1.397       .  A
C447        H454   1.083       .  S
C448        C449   1.417       .  A
C449        C450   1.400       .  A
C449       Br456   1.919       .  S
C450        C451   1.399       .  A
C450        H455   1.084       .  S
C451        C452   1.405       .  A
C452       Br453   1.921       .  S
