geometry optimzed in LAMMPS
_audit_creation_date              2020-11-30 
_audit_creation_method            'lammps2cif' 
_symmetry_space_group_name_H-M    'P1' 
_symmetry_Int_Tables_number       1 
_symmetry_cell_setting            triclinic 
loop_ 
_symmetry_equiv_pos_as_xyz 
  x,y,z 
_cell_length_a                    69.46204208914182 
_cell_length_b                    69.42849048200796 
_cell_length_c                    53.674914937056236 
_cell_angle_alpha                 89.82212775036076 
_cell_angle_beta                  90.10723238250515 
_cell_angle_gamma                 120.81280420386842 
loop_ 
_atom_site_label 
_atom_site_type_symbol 
_atom_site_fract_x 
_atom_site_fract_y 
_atom_site_fract_z 
_atom_site_charge 
N1          N  0.60930265  0.83397431  0.09006325    -0.27060
N2          N  0.61138797  0.84440622  0.11133662    -0.34920
C3          C  0.61087312  0.86319348  0.10670925     0.01280
C4          C  0.60796141  0.86437197  0.08135738     0.07300
C5          C  0.60711869  0.84563394  0.07136801    -0.05800
H6          H  0.61198738  0.87483549  0.12079747     0.07970
H7          H  0.60518893  0.84087065  0.05194312     0.09170
Cu8        Cu  0.61338633  0.83162929  0.14560142     0.44170
Cu9        Cu  0.60951062  0.80441062  0.08741921     0.41990
Cu10       Cu  0.61242415  0.77849666  0.14479282     0.43880
N11         N  0.61299677  0.81433379  0.17738899    -0.34450
N12         N  0.61267885  0.79511111  0.17724974    -0.28700
C13         C  0.61207948  0.78839723  0.20096455    -0.04800
C14         C  0.61195998  0.80411388  0.21670040     0.07410
C15         C  0.61254797  0.82029355  0.20110325     0.01210
H16         H  0.61154946  0.77310641  0.20631581     0.08860
H17         H  0.61250583  0.83526369  0.20654100     0.07940
N18         N  0.61106351  0.76528051  0.10951810    -0.35900
N19         N  0.60988235  0.77486057  0.08871348    -0.28080
C20         C  0.60859663  0.76219827  0.06918099    -0.03320
C21         C  0.60879202  0.74354833  0.07799516     0.05290
C22         C  0.61061075  0.74619244  0.10367752     0.03380
H23         H  0.60773182  0.76642219  0.04996438     0.08490
H24         H  0.61107641  0.73482435  0.11714886     0.07320
N25         N  0.55099307  0.98152383  0.98900055    -0.27060
N26         N  0.55962324  0.99779231  0.97226774    -0.34920
C27         C  0.54451133  0.00372748  0.96666383     0.01280
C28         C  0.52542469  0.99081847  0.98083883     0.07300
C29         C  0.53017849  0.97681566  0.99466185    -0.05800
H30         H  0.54719657  0.01613252  0.95275246     0.07970
H31         H  0.51930049  0.96406811  0.00788338     0.09170
Cu32       Cu  0.59172512  0.01185456  0.95820513     0.44170
Cu33       Cu  0.56769325  0.96606662  0.00269835     0.41990
Cu34       Cu  0.62632345  0.99258812  0.98509979     0.43880
N35         N  0.62528565  0.02570171  0.94981285    -0.34450
N36         N  0.63823343  0.01922500  0.96043758    -0.28700
C37         C  0.65931107  0.03215011  0.95200154    -0.04800
C38         C  0.65945517  0.04722755  0.93505730     0.07410
C39         C  0.63767602  0.04274143  0.93408702     0.01210
H40         H  0.67338323  0.03051808  0.95755780     0.08860
H41         H  0.63138325  0.05143042  0.92310644     0.07940
N42         N  0.60990692  0.96404159  0.00695097    -0.35900
N43         N  0.58843818  0.95402541  0.01293159    -0.28080
C44         C  0.58295462  0.93555616  0.02643394    -0.03320
C45         C  0.60196543  0.93409717  0.02935893     0.05290
C46         C  0.61869556  0.95235854  0.01664983     0.03380
H47         H  0.56641511  0.92417638  0.03382709     0.08490
H48         H  0.63590715  0.95665829  0.01423325     0.07320
N49         N  0.82970645  0.20558708  0.86813060    -0.27060
N50         N  0.83696450  0.21645374  0.84681383    -0.34920
C51         C  0.85475537  0.23690810  0.85120915     0.01280
C52         C  0.85909532  0.23917945  0.87664165     0.07300
C53         C  0.84288346  0.21871855  0.88666108    -0.05800
H54         H  0.86370692  0.24926014  0.83682400     0.07970
H55         H  0.84080081  0.21334717  0.90583860     0.09170
Cu56       Cu  0.82266383  0.20265238  0.81279351     0.44170
Cu57       Cu  0.80117346  0.17411004  0.87112082     0.41990
Cu58       Cu  0.76974483  0.14985872  0.81433248     0.43880
N59         N  0.80611929  0.18455113  0.78138633    -0.34450
N60         N  0.78680761  0.16531583  0.78186124    -0.28700
C61         C  0.78063143  0.15806987  0.75837407    -0.04800
C62         C  0.79685595  0.17351784  0.74244505     0.07410
C63         C  0.81277464  0.19005467  0.75762996     0.01210
H64         H  0.76538770  0.14276977  0.75331545     0.08860
H65         H  0.82798528  0.20510074  0.75188925     0.07940
N66         N  0.75757965  0.13751114  0.84960884    -0.35900
N67         N  0.76948630  0.14569109  0.87012896    -0.28080
C68         C  0.75722888  0.13355836  0.88971526    -0.03320
C69         C  0.73616769  0.11703841  0.88136424     0.05290
C70         C  0.73726863  0.12018472  0.85564946     0.03380
H71         H  0.76372588  0.13665931  0.90840358     0.08490
H72         H  0.72427145  0.11073724  0.84208986     0.07320
N73         N  0.32851630  0.36126538  0.00476463    -0.27060
N74         N  0.34017234  0.38281988  0.01034064    -0.34920
C75         C  0.32710194  0.38806733  0.02362666     0.01280
C76         C  0.30613426  0.36891748  0.02653358     0.07300
C77         C  0.30783195  0.35220950  0.01447902    -0.05800
H78         H  0.33246662  0.40469272  0.03051744     0.07970
H79         H  0.29522045  0.33460344  0.01320264     0.09170
Cu80       Cu  0.37349159  0.40401561  0.00006930     0.44170
Cu81       Cu  0.34100443  0.34510305  0.98387754     0.41990
Cu82       Cu  0.39979689  0.37807557  0.96708058     0.43880
N83         N  0.40690113  0.42136396  0.98879548    -0.34450
N84         N  0.41666163  0.41179671  0.97723456    -0.28700
C85         C  0.43825793  0.42741499  0.97278561    -0.04800
C86         C  0.44219089  0.44774986  0.98185108     0.07410
C87         C  0.42197920  0.44333895  0.99182409     0.01210
H88         H  0.45010229  0.42428191  0.96330220     0.08860
H89         H  0.41849158  0.45521975  0.00061756     0.07940
N90         N  0.37874108  0.34467455  0.95692685    -0.35900
N91         N  0.35722319  0.33288453  0.96264200    -0.28080
C92         C  0.34813321  0.31239996  0.95239938    -0.03320
C93         C  0.36477440  0.31094557  0.93982562     0.05290
C94         C  0.38393482  0.33186873  0.94305387     0.03380
H95         H  0.33050348  0.29985396  0.95349213     0.08490
H96         H  0.40048833  0.33746537  0.93577631     0.07320
N97         N  0.19922017  0.36241124  0.08800561    -0.27060
N98         N  0.20876680  0.36345400  0.10967160    -0.34920
C99         C  0.22853749  0.36483956  0.10564683     0.01280
C100        C  0.23158166  0.36467308  0.08018507     0.07300
C101        C  0.21257723  0.36293698  0.06958913    -0.05800
H102        H  0.23971489  0.36565116  0.12020261     0.07970
H103        H  0.20892763  0.36253047  0.04992776     0.09170
Cu104      Cu  0.19435734  0.36282117  0.14361996     0.44170
Cu105      Cu  0.16910762  0.36158238  0.08462221     0.41990
Cu106      Cu  0.14331666  0.36492315  0.14211828     0.43880
N107        N  0.17656196  0.36146474  0.17513360    -0.34450
N108        N  0.15788400  0.36214227  0.17470279    -0.28700
C109        C  0.15065709  0.36092361  0.19822671    -0.04800
C110        C  0.16555950  0.35946424  0.21414638     0.07410
C111        C  0.18174784  0.35984052  0.19888113     0.01210
H112        H  0.13577282  0.36125649  0.20332681     0.08860
H113        H  0.19629869  0.35910226  0.20456262     0.07940
N114        N  0.13206426  0.36667702  0.10679467    -0.35900
N115        N  0.14095002  0.36454764  0.08596079    -0.28080
C116        C  0.12942097  0.36564968  0.06641772    -0.03320
C117        C  0.11274168  0.36899012  0.07537299     0.05290
C118        C  0.11482963  0.36953855  0.10101695     0.03380
H119        H  0.13311986  0.36444164  0.04711250     0.08490
H120        H  0.10438769  0.37150229  0.11447207     0.07320
N121        N  0.99842074  0.42698744  0.97721882    -0.27060
N122        N  0.97978238  0.41725451  0.96383217    -0.34920
C123        C  0.97236622  0.43159674  0.96093463     0.01280
C124        C  0.98710045  0.45129442  0.97288831     0.07300
C125        C  0.00341961  0.44789853  0.98304822    -0.05800
H126        H  0.95728359  0.42788474  0.95100771     0.07970
H127        H  0.01760558  0.45957336  0.99424459     0.09170
Cu128      Cu  0.96459627  0.38485491  0.95030397     0.44170
Cu129      Cu  0.01550631  0.41101417  0.98817134     0.41990
Cu130      Cu  0.98829777  0.35240774  0.97060788     0.43880
N131        N  0.95200547  0.35190603  0.93975398    -0.34450
N132        N  0.96069761  0.33988135  0.94746184    -0.28700
C133        C  0.94849831  0.31899220  0.93831248    -0.04800
C134        C  0.93143706  0.31796559  0.92408493     0.07410
C135        C  0.93403665  0.33902820  0.92539509     0.01210
H136        H  0.95161242  0.30551293  0.94205232     0.08860
H137        H  0.92341029  0.34443898  0.91703080     0.07940
N138        N  0.01647751  0.36829677  0.99289158    -0.35900
N139        N  0.02698682  0.38977349  0.99864434    -0.28080
C140        C  0.04485792  0.39456837  0.01284427    -0.03320
C141        C  0.04569448  0.37509829  0.01647432     0.05290
C142        C  0.02708572  0.35879521  0.00354844     0.03380
H143        H  0.05630203  0.41114411  0.02000344     0.08490
H144        H  0.02090005  0.34112746  0.00223363     0.07320
N145        N  0.76876263  0.62163903  0.86946575    -0.27060
N146        N  0.75867512  0.61942505  0.84792817    -0.34920
C147        C  0.73887545  0.61794383  0.85198724     0.01280
C148        C  0.73635446  0.61983333  0.87744009     0.07300
C149        C  0.75580995  0.62205612  0.88779778    -0.05800
H150        H  0.72711517  0.61495109  0.83726299     0.07970
H151        H  0.76029945  0.62367881  0.90729184     0.09170
Cu152      Cu  0.77248863  0.61891638  0.81388389     0.44170
Cu153      Cu  0.79886443  0.62221399  0.87266722     0.41990
Cu154      Cu  0.82549942  0.62078894  0.81452750     0.43880
N155        N  0.78979460  0.62015482  0.78188609    -0.34450
N156        N  0.80917845  0.62084804  0.78195684    -0.28700
C157        C  0.81571146  0.62134878  0.75822403    -0.04800
C158        C  0.79966138  0.62098541  0.74253740     0.07410
C159        C  0.78351372  0.62025929  0.75819385     0.01210
H160        H  0.83094745  0.62182933  0.75282087     0.08860
H161        H  0.76823165  0.61970534  0.75280956     0.07940
N162        N  0.83740900  0.61978407  0.84986140    -0.35900
N163        N  0.82760952  0.62010995  0.87083689    -0.28080
C164        C  0.83890464  0.61829906  0.89019743    -0.03320
C165        C  0.85684712  0.61701185  0.88108923     0.05290
C166        C  0.85529384  0.61790625  0.85539763     0.03380
H167        H  0.83433511  0.61788885  0.90953333     0.08490
H168        H  0.86593714  0.61659435  0.84166741     0.07320
N169        N  0.96668751  0.55308929  0.97862325    -0.27060
N170        N  0.98574081  0.56294429  0.99123559    -0.34920
C171        C  0.99318149  0.54860174  0.99380691     0.01280
C172        C  0.97801107  0.52873950  0.98245064     0.07300
C173        C  0.96140447  0.53205260  0.97297844    -0.05800
H174        H  0.00856842  0.55242154  0.00310824     0.07970
H175        H  0.94685326  0.52025022  0.96233995     0.09170
Cu176      Cu  0.00127547  0.59549777  0.00406042     0.44170
Cu177      Cu  0.94969057  0.56935917  0.96850066     0.41990
Cu178      Cu  0.97687871  0.62826553  0.98646412     0.43880
N179        N  0.01437637  0.62843726  0.01463696    -0.34450
N180        N  0.00532708  0.64051158  0.00847381    -0.28700
C181        C  0.01789601  0.66121924  0.01802803    -0.04800
C182        C  0.03587793  0.66225582  0.03048952     0.07410
C183        C  0.03299751  0.64110474  0.02810506     0.01210
H184        H  0.01449570  0.67466305  0.01559212     0.08860
H185        H  0.04355821  0.63526631  0.03565508     0.07940
N186        N  0.94848329  0.61216136  0.96424654    -0.35900
N187        N  0.93811180  0.59061683  0.95843143    -0.28080
C188        C  0.92017133  0.58558963  0.94418133    -0.03320
C189        C  0.91941608  0.60493410  0.94071530     0.05290
C190        C  0.93764057  0.62146108  0.95353801     0.03380
H191        H  0.90887124  0.56921741  0.93637470     0.08490
H192        H  0.94263493  0.63895347  0.95502257     0.07320
N193        N  0.61081572  0.64734616  0.00027897    -0.27060
N194        N  0.58898733  0.63598896  0.00463434    -0.34920
C195        C  0.58357484  0.64892513  0.01798675     0.01280
C196        C  0.60295748  0.66921053  0.02257194     0.07300
C197        C  0.61989488  0.66765230  0.01103847    -0.05800
H198        H  0.56684505  0.64378309  0.02433645     0.07970
H199        H  0.63749725  0.68042660  0.01029208     0.09170
Cu200      Cu  0.56770038  0.60291729  0.99348391     0.44170
Cu201      Cu  0.62725395  0.63499082  0.97940775     0.41990
Cu202      Cu  0.59313042  0.57768580  0.95760451     0.43880
N203        N  0.55058408  0.56936621  0.98266209    -0.34450
N204        N  0.55999308  0.56006321  0.96988694    -0.28700
C205        C  0.54485544  0.53812411  0.96667063    -0.04800
C206        C  0.52498588  0.53346206  0.97783662     0.07410
C207        C  0.52917327  0.55361144  0.98776746     0.01210
H208        H  0.54807895  0.52643328  0.95696823     0.08860
H209        H  0.51761775  0.55653628  0.99821178     0.07940
N210        N  0.62677241  0.59862237  0.94829062    -0.35900
N211        N  0.63930081  0.61935701  0.95668136    -0.28080
C212        C  0.66024151  0.62817749  0.94768812    -0.03320
C213        C  0.66085582  0.61228003  0.93285960     0.05290
C214        C  0.63940010  0.59378462  0.93355969     0.03380
H215        H  0.67394873  0.64498147  0.95149880     0.08490
H216        H  0.63345003  0.57794018  0.92420080     0.07320
N217        N  0.35884859  0.14730850  0.87123984    -0.27060
N218        N  0.35788354  0.13745964  0.84983953    -0.34920
C219        C  0.35888170  0.11893025  0.85435955     0.01280
C220        C  0.36070853  0.11722716  0.87976722     0.07300
C221        C  0.36063357  0.13540467  0.88996259    -0.05800
H222        H  0.35841961  0.10763341  0.84021587     0.07970
H223        H  0.36169914  0.13962101  0.90950188     0.09170
Cu224      Cu  0.35571296  0.14990182  0.81552149     0.44170
Cu225      Cu  0.35773247  0.17644114  0.87401059     0.41990
Cu226      Cu  0.35693664  0.20276808  0.81594939     0.43880
N227        N  0.35436285  0.16603054  0.78363867    -0.34450
N228        N  0.35473577  0.18526592  0.78371660    -0.28700
C229        C  0.35371399  0.19116139  0.76006070    -0.04800
C230        C  0.35273312  0.17488107  0.74441165     0.07410
C231        C  0.35318035  0.15921617  0.75997649     0.01210
H232        H  0.35388521  0.20627070  0.75468911     0.08860
H233        H  0.35277675  0.14401882  0.75455369     0.07940
N234        N  0.35840558  0.21635493  0.85082163    -0.35900
N235        N  0.35801407  0.20635599  0.87197926    -0.28080
C236        C  0.35866201  0.21909313  0.89114663    -0.03320
C237        C  0.35986283  0.23820178  0.88162242     0.05290
C238        C  0.35959302  0.23588887  0.85598606     0.03380
H239        H  0.35871777  0.21496070  0.91058748     0.08490
H240        H  0.35998510  0.24741266  0.84211198     0.07320
N241        N  0.32863606  0.96243134  0.00264269    -0.27060
N242        N  0.33987876  0.95233404  0.00791903    -0.34920
C243        C  0.32658487  0.93350371  0.02081446     0.01280
C244        C  0.30584173  0.93155155  0.02387195     0.07300
C245        C  0.30787046  0.95037683  0.01220682    -0.05800
H246        H  0.33169280  0.92206204  0.02741775     0.07970
H247        H  0.29548690  0.95534769  0.01114938     0.09170
Cu248      Cu  0.37284988  0.96492183  0.99774289     0.44170
Cu249      Cu  0.34219513  0.99170861  0.98200758     0.41990
Cu250      Cu  0.39765052  0.01199583  0.95507598     0.43880
N251        N  0.40544616  0.97992580  0.98508200    -0.34450
N252        N  0.41441228  0.99661520  0.96888297    -0.28700
C253        C  0.43562668  0.00199649  0.96430504    -0.04800
C254        C  0.44028103  0.98799775  0.97831152     0.07410
C255        C  0.42071509  0.97443044  0.99148494     0.01210
H256        H  0.44683148  0.01518377  0.95168889     0.08860
H257        H  0.41774435  0.96185016  0.00527600     0.07940
N258        N  0.37778888  0.02568710  0.94747584    -0.35900
N259        N  0.35803502  0.01867174  0.95785082    -0.28080
C260        C  0.34986513  0.03136000  0.94960909    -0.03320
C261        C  0.36501216  0.04700381  0.93287796     0.05290
C262        C  0.38261995  0.04298215  0.93220919     0.03380
H263        H  0.33420766  0.02946186  0.95584773     0.08490
H264        H  0.39782581  0.05189469  0.92131718     0.07320
N265        N  0.13844625  0.77073110  0.08933398    -0.27060
N266        N  0.12773544  0.76300560  0.11069960    -0.34920
C267        C  0.10817714  0.74396251  0.10652790     0.01280
C268        C  0.10657237  0.73942537  0.08132840     0.07300
C269        C  0.12610538  0.75660305  0.07098072    -0.05800
H270        H  0.09625822  0.73392330  0.12085786     0.07970
H271        H  0.13090005  0.75876461  0.05155471     0.09170
Cu272      Cu  0.14058244  0.77796828  0.14466768     0.44170
Cu273      Cu  0.16910707  0.80029850  0.08629156     0.41990
Cu274      Cu  0.19534484  0.82813562  0.14450971     0.43880
N275        N  0.15722808  0.79484247  0.17654654    -0.34450
N276        N  0.17728246  0.81320812  0.17658980    -0.28700
C277        C  0.18342264  0.81981865  0.20025210    -0.04800
C278        C  0.16639688  0.80481763  0.21574455     0.07410
C279        C  0.15006832  0.78920885  0.20013067     0.01210
H280        H  0.19917896  0.83435814  0.20572294     0.08860
H281        H  0.13420355  0.77473575  0.20545444     0.07940
N282        N  0.20932371  0.83996684  0.10974758    -0.35900
N283        N  0.19955265  0.83018056  0.08852898    -0.28080
C284        C  0.21269502  0.84250151  0.06948410    -0.03320
C285        C  0.23177553  0.86068872  0.07922911     0.05290
C286        C  0.22904545  0.85860638  0.10479121     0.03380
H287        H  0.20879357  0.83835743  0.05000806     0.08490
H288        H  0.24038177  0.86997520  0.11877969     0.07320
N289        N  0.60371695  0.77104078  0.37187704    -0.27060
N290        N  0.60677702  0.76280799  0.35110907    -0.34920
C291        C  0.60756174  0.74431802  0.35668701     0.01280
C292        C  0.60490899  0.74069575  0.38225829     0.07300
C293        C  0.60227652  0.75795406  0.39114579    -0.05800
H294        H  0.60993773  0.73427616  0.34306891     0.07970
H295        H  0.59898003  0.76065441  0.41008478     0.09170
Cu296      Cu  0.60903272  0.77686166  0.31612865     0.44170
Cu297      Cu  0.60211562  0.79995464  0.37330626     0.41990
Cu298      Cu  0.60681521  0.82822157  0.31511019     0.43880
N299        N  0.60984046  0.79375153  0.28366060    -0.34450
N300        N  0.60909991  0.81241978  0.28336070    -0.28700
C301        C  0.60982876  0.81895930  0.25958583    -0.04800
C302        C  0.61103440  0.80367759  0.24416015     0.07410
C303        C  0.61099572  0.78791212  0.26004498     0.01210
H304        H  0.60938580  0.83370505  0.25397716     0.08860
H305        H  0.61171296  0.77325555  0.25485949     0.07940
N306        N  0.60434062  0.84040085  0.34954604    -0.35900
N307        N  0.60258968  0.82992379  0.37076038    -0.28080
C308        C  0.60119971  0.84180571  0.38963935    -0.03320
C309        C  0.60222284  0.86082009  0.37996308     0.05290
C310        C  0.60407317  0.85927395  0.35439669     0.03380
H311        H  0.59965076  0.83696674  0.40904329     0.08490
H312        H  0.60463872  0.87066979  0.34025232     0.07320
N313        N  0.99087253  0.42113831  0.47026433    -0.27060
N314        N  0.97282958  0.41162492  0.48450774    -0.34920
C315        C  0.96619184  0.42635304  0.48889853     0.01280
C316        C  0.98095764  0.44635673  0.47718022     0.07300
C317        C  0.99628912  0.44234054  0.46531749    -0.05800
H318        H  0.95136305  0.42246059  0.49940202     0.07970
H319        H  0.01040148  0.45399002  0.45399660     0.09170
Cu320      Cu  0.95772195  0.37916132  0.49751781     0.44170
Cu321      Cu  0.00670013  0.40440494  0.45804111     0.41990
Cu322      Cu  0.97924055  0.34519186  0.47595173     0.43880
N323        N  0.94420995  0.34606728  0.50761244    -0.34450
N324        N  0.95169911  0.33326685  0.49922055    -0.28700
C325        C  0.93898320  0.31251536  0.50866328    -0.04800
C326        C  0.92259967  0.31222096  0.52370097     0.07410
C327        C  0.92668601  0.33395277  0.52276495     0.01210
H328        H  0.94141686  0.29864600  0.50470826     0.08860
H329        H  0.91796762  0.34075300  0.53264026     0.07940
N330        N  0.00817132  0.36172010  0.45475610    -0.35900
N331        N  0.01820884  0.38312653  0.44836766    -0.28080
C332        C  0.03655206  0.38836448  0.43487387    -0.03320
C333        C  0.03827658  0.36941556  0.43283911     0.05290
C334        C  0.01985670  0.35281022  0.44552328     0.03380
H335        H  0.04789065  0.40483293  0.42723591     0.08490
H336        H  0.01496227  0.33538568  0.44754729     0.07320
N337        N  0.19417439  0.35791159  0.36923001    -0.27060
N338        N  0.20395830  0.35853195  0.34790028    -0.34920
C339        C  0.22362877  0.35989085  0.35267075     0.01280
C340        C  0.22641567  0.36020954  0.37825957     0.07300
C341        C  0.20729876  0.35871794  0.38814718    -0.05800
H342        H  0.23496796  0.36046667  0.33851422     0.07970
H343        H  0.20345202  0.35875415  0.40766420     0.09170
Cu344      Cu  0.19034916  0.35788014  0.31324768     0.44170
Cu345      Cu  0.16404004  0.35722554  0.37156165     0.41990
Cu346      Cu  0.13828976  0.35777464  0.31276647     0.43880
N347        N  0.17380468  0.35764057  0.28092163    -0.34450
N348        N  0.15476488  0.35762454  0.28073286    -0.28700
C349        C  0.14874629  0.35803739  0.25698952    -0.04800
C350        C  0.16478606  0.35831970  0.24152181     0.07410
C351        C  0.18040334  0.35802411  0.25729970     0.01210
H352        H  0.13393935  0.35837385  0.25145895     0.08860
H353        H  0.19560293  0.35837563  0.25205745     0.07940
N354        N  0.12583786  0.35913186  0.34731225    -0.35900
N355        N  0.13511374  0.35880786  0.36871394    -0.28080
C356        C  0.12322567  0.36041023  0.38748180    -0.03320
C357        C  0.10574802  0.36205306  0.37742304     0.05290
C358        C  0.10783774  0.36098419  0.35188688     0.03380
H359        H  0.12728998  0.36081114  0.40701246     0.08490
H360        H  0.09702018  0.36133972  0.33760958     0.07320
N361        N  0.35227352  0.33133399  0.50039435    -0.27060
N362        N  0.37235770  0.34468126  0.50997037    -0.34920
C363        C  0.37773323  0.33259600  0.52496583     0.01280
C364        C  0.36032834  0.31040630  0.52461466     0.07300
C365        C  0.34440767  0.31037362  0.50893028    -0.05800
H366        H  0.39302992  0.33970684  0.53570141     0.07970
H367        H  0.32825183  0.29612339  0.50397264     0.09170
Cu368      Cu  0.39196461  0.37864004  0.50176761     0.44170
Cu369      Cu  0.33624928  0.34242892  0.47682791     0.41990
Cu370      Cu  0.36891450  0.40130690  0.45854368     0.43880
N371        N  0.40977955  0.41134322  0.48841352    -0.34450
N372        N  0.40171119  0.41947447  0.47178051    -0.28700
C373        C  0.41770990  0.44068121  0.46612248    -0.04800
C374        C  0.43657560  0.44620749  0.48018775     0.07410
C375        C  0.43095598  0.42722480  0.49407729     0.01210
H376        H  0.41564251  0.45139938  0.45309198     0.08860
H377        H  0.44158471  0.42502249  0.50709098     0.07940
N378        N  0.33537283  0.37988835  0.44921248    -0.35900
N379        N  0.32361687  0.35848536  0.45561051    -0.28080
C380        C  0.30269718  0.34947723  0.44649996    -0.03320
C381        C  0.30102054  0.36603503  0.43391062     0.05290
C382        C  0.32217214  0.38504907  0.43595352     0.03380
H383        H  0.28988904  0.33198789  0.44848201     0.08490
H384        H  0.32759617  0.40151982  0.42842038     0.07320
N385        N  0.35230463  0.14468931  0.59000640    -0.27060
N386        N  0.35444926  0.13633539  0.61129645    -0.34920
C387        C  0.35681412  0.11865488  0.60647194     0.01280
C388        C  0.35590795  0.11571746  0.58094979     0.07300
C389        C  0.35288545  0.13236879  0.57108220    -0.05800
H390        H  0.35877090  0.10855291  0.62048252     0.07970
H391        H  0.35160440  0.13554303  0.55158170     0.09170
Cu392      Cu  0.35356011  0.14914471  0.64581656     0.44170
Cu393      Cu  0.34996805  0.17314723  0.58747560     0.41990
Cu394      Cu  0.34987183  0.19951542  0.64541589     0.43880
N395        N  0.35210109  0.16506091  0.67775138    -0.34450
N396        N  0.35091172  0.18347421  0.67765627    -0.28700
C397        C  0.35079849  0.18973521  0.70132949    -0.04800
C398        C  0.35191202  0.17449292  0.71702005     0.07410
C399        C  0.35267234  0.15906254  0.70145972     0.01210
H400        H  0.35010675  0.20437324  0.70667031     0.08860
H401        H  0.35385052  0.14468833  0.70690933     0.07940
N402        N  0.34976802  0.21251830  0.61056368    -0.35900
N403        N  0.34995513  0.20288629  0.58941535    -0.28080
C404        C  0.35083328  0.21581064  0.57023100    -0.03320
C405        C  0.35102919  0.23432467  0.57980365     0.05290
C406        C  0.35039362  0.23180846  0.60538211     0.03380
H407        H  0.35160945  0.21215898  0.55080430     0.08490
H408        H  0.35084706  0.24335049  0.61918797     0.07320
N409        N  0.41336305  0.99988873  0.48654942    -0.27060
N410        N  0.40282516  0.98005421  0.47562775    -0.34920
C411        C  0.41738138  0.97316701  0.47141190     0.01280
C412        C  0.43827853  0.98952737  0.47980623     0.07300
C413        C  0.43503128  0.00614729  0.48953548    -0.05800
H414        H  0.41281348  0.95714661  0.46329821     0.07970
H415        H  0.44751379  0.02169090  0.49812020     0.09170
Cu416      Cu  0.36946132  0.96307843  0.46578954     0.44170
Cu417      Cu  0.39762492  0.01721181  0.49723485     0.41990
Cu418      Cu  0.33921371  0.99055582  0.47809058     0.43880
N419        N  0.33736038  0.95124989  0.45302166    -0.34450
N420        N  0.32638899  0.96183581  0.45684621    -0.28700
C421        C  0.30643293  0.95066930  0.44533597    -0.04800
C422        C  0.30475321  0.93209396  0.43359871     0.07410
C423        C  0.32467462  0.93294119  0.43915604     0.01210
H424        H  0.29412850  0.95579386  0.44544028     0.08860
H425        H  0.32958730  0.92103918  0.43401260     0.07940
N426        N  0.35502268  0.01852822  0.50061215    -0.35900
N427        N  0.37634136  0.02875397  0.50704085    -0.28080
C428        C  0.38098078  0.04645947  0.52138656    -0.03320
C429        C  0.36156847  0.04747794  0.52441489     0.05290
C430        C  0.34546561  0.02914581  0.51096879     0.03380
H431        H  0.39742599  0.05768073  0.52901347     0.08490
H432        H  0.32790982  0.02315811  0.50901398     0.07320
N433        N  0.76404206  0.61274384  0.58838579    -0.27060
N434        N  0.75632964  0.61610151  0.60938847    -0.34920
C435        C  0.73782574  0.61701235  0.60433496     0.01280
C436        C  0.73372903  0.61421587  0.57886202     0.07300
C437        C  0.75067970  0.61135135  0.56946885    -0.05800
H438        H  0.72808851  0.61956123  0.61821247     0.07970
H439        H  0.75294934  0.60792909  0.55041112     0.09170
Cu440      Cu  0.77131656  0.61877830  0.64388262     0.44170
Cu441      Cu  0.79261257  0.61062376  0.58626780     0.41990
Cu442      Cu  0.82415160  0.61950738  0.64319150     0.43880
N443        N  0.78911880  0.62018362  0.67580587    -0.34450
N444        N  0.80832078  0.62048835  0.67555062    -0.28700
C445        C  0.81511730  0.62097502  0.69917225    -0.04800
C446        C  0.79945542  0.62097460  0.71505898     0.07410
C447        C  0.78321943  0.62047513  0.69961063     0.01210
H448        H  0.83023149  0.62109049  0.70435907     0.08860
H449        H  0.76811353  0.62014777  0.70522602     0.07940
N450        N  0.83506740  0.61615157  0.60836351    -0.35900
N451        N  0.82303376  0.61201544  0.58782286    -0.28080
C452        C  0.83398292  0.60946433  0.56870332    -0.03320
C453        C  0.85399515  0.61246916  0.57756546     0.05290
C454        C  0.85420576  0.61666843  0.60275852     0.03380
H455        H  0.82785848  0.60577667  0.54974364     0.08490
H456        H  0.86701332  0.61930362  0.61611587     0.07320
N457        N  0.96787409  0.55321973  0.48063317    -0.27060
N458        N  0.98593302  0.56295013  0.46642219    -0.34920
C459        C  0.99241788  0.54818194  0.46140431     0.01280
C460        C  0.97755969  0.52799386  0.47276383     0.07300
C461        C  0.96231194  0.53190348  0.48496322    -0.05800
H462        H  0.00723927  0.55216934  0.45082757     0.07970
H463        H  0.94820375  0.52013164  0.49620874     0.09170
Cu464      Cu  0.00113149  0.59579285  0.45448964     0.44170
Cu465      Cu  0.95206818  0.56961585  0.49381931     0.41990
Cu466      Cu  0.97666386  0.62793760  0.47477437     0.43880
N467        N  0.01344929  0.62878158  0.44449170    -0.34450
N468        N  0.00476942  0.64077164  0.45220789    -0.28700
C469        C  0.01699514  0.66167525  0.44296490    -0.04800
C470        C  0.03398091  0.66273793  0.42847259     0.07410
C471        C  0.03128393  0.64160854  0.42998157     0.01210
H472        H  0.01370053  0.67505702  0.44643250     0.08860
H473        H  0.04178126  0.63606594  0.42165183     0.07940
N474        N  0.94844638  0.61101210  0.49706173    -0.35900
N475        N  0.93960023  0.58988552  0.50412109    -0.28080
C476        C  0.92174422  0.58419956  0.51869976    -0.03320
C477        C  0.91903229  0.60256948  0.52075021     0.05290
C478        C  0.93640036  0.61929237  0.50689347     0.03380
H479        H  0.91187115  0.56801232  0.52758544     0.08490
H480        H  0.94001359  0.63626272  0.50407418     0.07320
N481        N  0.13607368  0.77314145  0.36979008    -0.27060
N482        N  0.12582560  0.76433102  0.34848362    -0.34920
C483        C  0.10689050  0.74478013  0.35311182     0.01280
C484        C  0.10502964  0.74106361  0.37861775     0.07300
C485        C  0.12403099  0.75935910  0.38853539    -0.05800
H486        H  0.09530888  0.73408269  0.33888616     0.07970
H487        H  0.12914932  0.76232033  0.40783940     0.09170
Cu488      Cu  0.13844269  0.77878098  0.31407266     0.44170
Cu489      Cu  0.16588231  0.80348034  0.37253166     0.41990
Cu490      Cu  0.19246747  0.83015534  0.31444287     0.43880
N491        N  0.15557781  0.79557828  0.28218413    -0.34450
N492        N  0.17538057  0.81426654  0.28234937    -0.28700
C493        C  0.18219720  0.82056268  0.25876400    -0.04800
C494        C  0.16589074  0.80505552  0.24304417     0.07410
C495        C  0.14924436  0.78945669  0.25846511     0.01210
H496        H  0.19795178  0.83522738  0.25351965     0.08860
H497        H  0.13379534  0.77459473  0.25292111     0.07940
N498        N  0.20578889  0.84317967  0.34897159    -0.35900
N499        N  0.19578194  0.83378411  0.37024851    -0.28080
C500        C  0.20862019  0.84651301  0.38920190    -0.03320
C501        C  0.22764579  0.86468300  0.37929491     0.05290
C502        C  0.22539547  0.86196846  0.35377424     0.03380
H503        H  0.20473450  0.84244899  0.40870883     0.08490
H504        H  0.23716183  0.87279863  0.33972942     0.07320
N505        N  0.60769726  0.64400182  0.45918671    -0.27060
N506        N  0.58708824  0.63105891  0.45064337    -0.34920
C507        C  0.58171302  0.64338391  0.43604143     0.01280
C508        C  0.59977029  0.66514522  0.43536747     0.07300
C509        C  0.61587722  0.66497979  0.45044253    -0.05800
H510        H  0.56573161  0.63700420  0.42680186     0.07970
H511        H  0.63248826  0.67898528  0.45437837     0.09170
Cu512      Cu  0.56682567  0.59730120  0.45952281     0.44170
Cu513      Cu  0.62390307  0.63223885  0.48163607     0.41990
Cu514      Cu  0.58925433  0.57448385  0.50331842     0.43880
N515        N  0.54880900  0.56451907  0.47265072    -0.34450
N516        N  0.55666868  0.55635341  0.48949391    -0.28700
C517        C  0.54066854  0.53508123  0.49486056    -0.04800
C518        C  0.52201976  0.52953222  0.48038393     0.07410
C519        C  0.52776114  0.54858449  0.46655940     0.01210
H520        H  0.54258075  0.52434481  0.50801196     0.08860
H521        H  0.51728439  0.55080983  0.45333960     0.07940
N522        N  0.62300775  0.59519551  0.51221962    -0.35900
N523        N  0.63573120  0.61594486  0.50386016    -0.28080
C524        C  0.65674825  0.62429797  0.51246959    -0.03320
C525        C  0.65721798  0.60818229  0.52726653     0.05290
C526        C  0.63555889  0.58992049  0.52656623     0.03380
H527        H  0.67059760  0.64102537  0.50857827     0.08490
H528        H  0.62941739  0.57384901  0.53555498     0.07320
N529        N  0.82423276  0.20372562  0.58766707    -0.27060
N530        N  0.83495971  0.21259571  0.60877782    -0.34920
C531        C  0.85399043  0.23198106  0.60379057     0.01280
C532        C  0.85513043  0.23543516  0.57838182     0.07300
C533        C  0.83602109  0.21735072  0.56868591    -0.05800
H534        H  0.86584215  0.24295139  0.61766544     0.07970
H535        H  0.83102677  0.21433649  0.54932233     0.09170
Cu536      Cu  0.82273819  0.19865514  0.64345537     0.44170
Cu537      Cu  0.79411568  0.17358768  0.58553891     0.41990
Cu538      Cu  0.76881031  0.14727344  0.64429893     0.43880
N539        N  0.80629360  0.18214731  0.67574172    -0.34450
N540        N  0.78658409  0.16335194  0.67604431    -0.28700
C541        C  0.78032704  0.15719293  0.69979780    -0.04800
C542        C  0.79688101  0.17293448  0.71512902     0.07410
C543        C  0.81309625  0.18851071  0.69930064     0.01210
H544        H  0.76473124  0.14252480  0.70542666     0.08860
H545        H  0.82857636  0.20351511  0.70446480     0.07940
N546        N  0.75465307  0.13407722  0.61005353    -0.35900
N547        N  0.76411610  0.14340875  0.58852642    -0.28080
C548        C  0.75081032  0.13058796  0.56987702    -0.03320
C549        C  0.73213852  0.11245524  0.58028667     0.05290
C550        C  0.73497011  0.11520517  0.60572334     0.03380
H551        H  0.75422140  0.13445441  0.55026863     0.08490
H552        H  0.72354040  0.10439497  0.62001692     0.07320
N553        N  0.54423345  0.97475806  0.47704841    -0.27060
N554        N  0.55467187  0.99391354  0.48927622    -0.34920
C555        C  0.54055838  0.00141669  0.49298131     0.01280
C556        C  0.51990535  0.98602927  0.48304037     0.07300
C557        C  0.52296102  0.96941561  0.47283332    -0.05800
H558        H  0.54533587  0.01721532  0.50180777     0.07970
H559        H  0.51062464  0.95449776  0.46311772     0.09170
Cu560      Cu  0.58740291  0.00900162  0.50089777     0.44170
Cu561      Cu  0.56026624  0.95782337  0.46616414     0.41990
Cu562      Cu  0.62100782  0.98729018  0.47897903     0.43880
N563        N  0.62038364  0.02229652  0.51080786    -0.34450
N564        N  0.63326292  0.01507745  0.50208677    -0.28700
C565        C  0.65400474  0.02794525  0.51143494    -0.04800
C566        C  0.65425118  0.04412861  0.52704263     0.07410
C567        C  0.63229799  0.03958244  0.52621724     0.01210
H568        H  0.66779530  0.02556004  0.50700359     0.08860
H569        H  0.62488802  0.04755405  0.53617208     0.07940
N570        N  0.60345383  0.95763387  0.45895736    -0.35900
N571        N  0.58150834  0.94658254  0.45522483    -0.28080
C572        C  0.57568982  0.92779036  0.44232473    -0.03320
C573        C  0.59487176  0.92710461  0.43756931     0.05290
C574        C  0.61216280  0.94630296  0.44821080     0.03380
H575        H  0.55881339  0.91579840  0.43631311     0.08490
H576        H  0.62976286  0.95157818  0.44828793     0.07320
C577        C  0.71242503  0.09490075  0.56706993     0.00070
C578        C  0.69305972  0.09622030  0.56629117    -0.11800
C579        C  0.67399039  0.08028711  0.55336935     0.02310
C580        C  0.67389003  0.06196178  0.54133086    -0.00010
C581        C  0.69356441  0.06077172  0.54268624    -0.11740
C582        C  0.71272806  0.07712432  0.55510714     0.02190
H583        H  0.69303583  0.11013084  0.57543504     0.15170
H584        H  0.69423346  0.04707226  0.53410734     0.15170
C585        C  0.73247564  0.07521986  0.55558005     0.36830
C586        C  0.65553037  0.08421567  0.55252048     0.36730
N587        N  0.74833122  0.07374789  0.55595912    -0.43520
N588        N  0.64112851  0.08801268  0.55228181    -0.43520
C589        C  0.05191161  0.68259048  0.41536056     0.00070
C590        C  0.06230489  0.70336533  0.42751930    -0.11800
C591        C  0.07966576  0.72260170  0.41612618     0.02310
C592        C  0.08690090  0.72125338  0.39189351    -0.00010
C593        C  0.07618923  0.70044123  0.37963741    -0.11740
C594        C  0.05885853  0.68123264  0.39107723     0.02190
H595        H  0.05694189  0.70455086  0.44612611     0.15170
H596        H  0.08140359  0.69908016  0.36102596     0.15170
C597        C  0.04783851  0.66062605  0.37700265     0.36830
C598        C  0.08899091  0.74349244  0.42952860     0.36730
N599        N  0.03895968  0.64415390  0.36565618    -0.43520
N600        N  0.09637296  0.76014374  0.44046233    -0.43520
C601        C  0.71453479  0.61321492  0.56518799     0.00070
C602        C  0.69394894  0.60466593  0.57765348    -0.11800
C603        C  0.67520978  0.60302595  0.56573692     0.02310
C604        C  0.67675776  0.61003605  0.54074756    -0.00010
C605        C  0.69739191  0.61908286  0.52838121    -0.11740
C606        C  0.71617185  0.62065962  0.54023743     0.02190
H607        H  0.69235579  0.59902232  0.59678736     0.15170
H608        H  0.69879149  0.62475299  0.50925331     0.15170
C609        C  0.73695030  0.63070486  0.52648281     0.36830
C610        C  0.65488551  0.59502866  0.57997860     0.36730
N611        N  0.75351219  0.63874851  0.51526964    -0.43520
N612        N  0.63863154  0.58873280  0.59143310    -0.43520
C613        C  0.87080279  0.61017609  0.56330527     0.00070
C614        C  0.86430627  0.58963930  0.55183739    -0.11800
C615        C  0.87965580  0.58662207  0.53806250     0.02310
C616        C  0.90202604  0.60458124  0.53538337    -0.00010
C617        C  0.90832160  0.62526525  0.54662747    -0.11740
C618        C  0.89296926  0.62815209  0.56055968     0.02190
H619        H  0.84714167  0.57586745  0.55372664     0.15170
H620        H  0.92535803  0.63924322  0.54468289     0.15170
C621        C  0.90006755  0.64995001  0.57095927     0.36830
C622        C  0.87159890  0.56520507  0.52617333     0.36730
N623        N  0.90573411  0.66746939  0.57913605    -0.43520
N624        N  0.86496791  0.54795407  0.51676089    -0.43520
C625        C  0.45927657  0.98885014  0.47990410     0.00070
C626        C  0.47405567  0.99850663  0.50004061    -0.11800
C627        C  0.49374744  0.99772762  0.50163871     0.02310
C628        C  0.49920516  0.98730912  0.48253381    -0.00010
C629        C  0.48448470  0.97780453  0.46228453    -0.11740
C630        C  0.46474655  0.97852229  0.46074785     0.02190
H631        H  0.46992316  0.00620036  0.51502828     0.15170
H632        H  0.48857497  0.97008697  0.44728760     0.15170
C633        C  0.45102516  0.96928332  0.43877674     0.36830
C634        C  0.50727563  0.00685559  0.52375331     0.36730
N635        N  0.44011766  0.96180766  0.42111442    -0.43520
N636        N  0.51799361  0.01426062  0.54155403    -0.43520
C637        C  0.28530919  0.91481650  0.41916945     0.00070
C638        C  0.26374444  0.91026383  0.42558597    -0.11800
C639        C  0.24476854  0.89415884  0.41272730     0.02310
C640        C  0.24715214  0.88220923  0.39300768    -0.00010
C641        C  0.26860650  0.88695985  0.38617983    -0.11740
C642        C  0.28763092  0.90302339  0.39902632     0.02190
H643        H  0.26160049  0.91918174  0.44084336     0.15170
H644        H  0.27048902  0.87790551  0.37085092     0.15170
C645        C  0.30917674  0.90738889  0.39039354     0.36830
C646        C  0.22317861  0.89094297  0.41939250     0.36730
N647        N  0.32633007  0.91066214  0.38330675    -0.43520
N648        N  0.20590387  0.88848840  0.42462509    -0.43520
C649        C  0.35916437  0.06450058  0.53915600     0.00070
C650        C  0.37699026  0.07918097  0.55490989    -0.11800
C651        C  0.37625344  0.09590442  0.56864159     0.02310
C652        C  0.35737305  0.09825314  0.56703591    -0.00010
C653        C  0.33956563  0.08389624  0.55158270    -0.11740
C654        C  0.34010466  0.06707045  0.53782091     0.02190
H655        H  0.39175269  0.07783270  0.55667343     0.15170
H656        H  0.32502619  0.08579333  0.55038134     0.15170
C657        C  0.32070568  0.05329366  0.52260028     0.36830
C658        C  0.39555479  0.11119020  0.58329909     0.36730
N659        N  0.30474693  0.04254139  0.51078893    -0.43520
N660        N  0.41106337  0.12358288  0.59489213    -0.43520
C661        C  0.50033951  0.50802931  0.48008444     0.00070
C662        C  0.48795153  0.50012517  0.50221285    -0.11800
C663        C  0.46698924  0.48022216  0.50249001     0.02310
C664        C  0.45823098  0.46773408  0.48039115    -0.00010
C665        C  0.47061632  0.47563056  0.45825514    -0.11740
C666        C  0.49159217  0.49553737  0.45798010     0.02190
H667        H  0.49446588  0.50977579  0.51919854     0.15170
H668        H  0.46410267  0.46596306  0.44127684     0.15170
C669        C  0.50436130  0.50223429  0.43513568     0.36830
C670        C  0.45426152  0.47349123  0.52536166     0.36730
N671        N  0.51473972  0.50753810  0.41692386    -0.43520
N672        N  0.44391474  0.46814424  0.54359512    -0.43520
C673        C  0.35315946  0.25352352  0.56569566     0.00070
C674        C  0.37449295  0.27059447  0.55834490    -0.11800
C675        C  0.37731801  0.28914985  0.54479528     0.02310
C676        C  0.35843213  0.29093512  0.53861570    -0.00010
C677        C  0.33700510  0.27347565  0.54580153    -0.11740
C678        C  0.33427087  0.25485745  0.55914293     0.02190
H679        H  0.38898589  0.26930008  0.56304010     0.15170
H680        H  0.32230517  0.27440324  0.54122014     0.15170
C681        C  0.31193538  0.23713138  0.56560785     0.36830
C682        C  0.39968717  0.30537642  0.53661311     0.36730
N683        N  0.29405851  0.22282800  0.57070529    -0.43520
N684        N  0.41770045  0.31825230  0.53012846    -0.43520
C685        C  0.24563175  0.36182862  0.39223848     0.00070
C686        C  0.24140778  0.34855254  0.41361002    -0.11800
C687        C  0.25899077  0.34944417  0.42745377     0.02310
C688        C  0.28149288  0.36401887  0.41999728    -0.00010
C689        C  0.28563155  0.37750527  0.39877379    -0.11740
C690        C  0.26805655  0.37657647  0.38496679     0.02190
H691        H  0.22423092  0.33731972  0.41948925     0.15170
H692        H  0.30272911  0.38885480  0.39280695     0.15170
C693        C  0.27364939  0.39179051  0.36418705     0.36830
C694        C  0.25327541  0.33584756  0.44968354     0.36730
N695        N  0.27821394  0.40408273  0.34761365    -0.43520
N696        N  0.24844901  0.32484729  0.46745307    -0.43520
C697        C  0.97846521  0.50711424  0.47332041     0.00070
C698        C  0.97166827  0.49406077  0.49510906    -0.11800
C699        C  0.97248912  0.47439676  0.49693980     0.02310
C700        C  0.98007732  0.46725281  0.47649928    -0.00010
C701        C  0.98688152  0.48030596  0.45469717    -0.11740
C702        C  0.98604478  0.49998230  0.45286929     0.02190
H703        H  0.96614017  0.49949396  0.51107199     0.15170
H704        H  0.99242776  0.47486812  0.43875390     0.15170
C705        C  0.99210959  0.51181875  0.42937197     0.36830
C706        C  0.96638180  0.46260016  0.52046433     0.36730
N707        N  0.99699009  0.52121390  0.41047701    -0.43520
N708        N  0.96143877  0.45324030  0.53938001    -0.43520
C709        C  0.90499744  0.29280551  0.53797702     0.00070
C710        C  0.90966628  0.27647893  0.54666556    -0.11800
C711        C  0.89362779  0.25768470  0.55991662     0.02310
C712        C  0.87246655  0.25495123  0.56463667    -0.00010
C713        C  0.86758593  0.27099127  0.55595997    -0.11740
C714        C  0.88357469  0.28985352  0.54274658     0.02190
H715        H  0.92594105  0.27841632  0.54325734     0.15170
H716        H  0.85116524  0.26870596  0.55947796     0.15170
C717        C  0.87698699  0.30520678  0.53358407     0.36830
C718        C  0.89899507  0.24110278  0.56791513     0.36730
N719        N  0.87150013  0.31740884  0.52640220    -0.43520
N720        N  0.90322031  0.22773348  0.57422293    -0.43520
C721        C  0.05561886  0.36734510  0.41905556     0.00070
C722        C  0.06416528  0.37954046  0.39684771    -0.11800
C723        C  0.08043612  0.37811709  0.38297447     0.02310
C724        C  0.08851191  0.36421154  0.39128833    -0.00010
C725        C  0.08027336  0.35233261  0.41371983    -0.11740
C726        C  0.06400254  0.35375381  0.42760124     0.02190
H727        H  0.05803315  0.39017840  0.39018291     0.15170
H728        H  0.08651126  0.34179248  0.42042422     0.15170
C729        C  0.05705457  0.34184340  0.45102594     0.36830
C730        C  0.08920538  0.39193703  0.36096260     0.36730
N731        N  0.05158303  0.33227905  0.46980004    -0.43520
N732        N  0.09621190  0.40309473  0.34337070    -0.43520
C733        C  0.60056441  0.87821551  0.39424859     0.00070
C734        C  0.58669654  0.87155957  0.41542750    -0.11800
C735        C  0.58460289  0.88720294  0.42975420     0.02310
C736        C  0.59668591  0.91006382  0.42311415    -0.00010
C737        C  0.61083527  0.91687911  0.40228968    -0.11740
C738        C  0.61277291  0.90122732  0.38774338     0.02190
H739        H  0.57729559  0.85401441  0.42076630     0.15170
H740        H  0.62028824  0.93451133  0.39726931     0.15170
C741        C  0.62805023  0.90948981  0.36690791     0.36830
C742        C  0.57069394  0.87952771  0.45176066     0.36730
N743        N  0.64031883  0.91628359  0.35021987    -0.43520
N744        N  0.55965180  0.87338955  0.46947491    -0.43520
C745        C  0.60401970  0.72172759  0.39642391     0.00070
C746        C  0.59626750  0.70118592  0.38411187    -0.11800
C747        C  0.59496715  0.68271428  0.39634838     0.02310
C748        C  0.60143631  0.68445275  0.42154398    -0.00010
C749        C  0.60963037  0.70500245  0.43381371    -0.11740
C750        C  0.61092129  0.72353998  0.42162598     0.02190
H751        H  0.59101688  0.69940200  0.36481911     0.15170
H752        H  0.61485700  0.70651807  0.45312377     0.15170
C753        C  0.62010151  0.74423637  0.43539091     0.36830
C754        C  0.58792465  0.66249402  0.38224512     0.36730
N755        N  0.62743918  0.76070936  0.44666504    -0.43520
N756        N  0.58241896  0.64633199  0.37091131    -0.43520
C757        C  0.28641369  0.91357763  0.03779798     0.00070
C758        C  0.29069194  0.90322788  0.05786573    -0.11800
C759        C  0.27319890  0.88597169  0.07150719     0.02310
C760        C  0.25079099  0.87872184  0.06522596    -0.00010
C761        C  0.24637525  0.88875945  0.04505493    -0.11740
C762        C  0.26387083  0.90608922  0.03138192     0.02190
H763        H  0.30781397  0.90865048  0.06306225     0.15170
H764        H  0.22914453  0.88310514  0.04004162     0.15170
C765        C  0.25797421  0.91511074  0.01041919     0.36830
C766        C  0.27873387  0.87527448  0.09104814     0.36730
N767        N  0.25300821  0.92222490  0.99369166    -0.43520
N768        N  0.28320539  0.86663986  0.10659947    -0.43520
C769        C  0.36202190  0.09948464  0.89322994     0.00070
C770        C  0.34218609  0.07936364  0.89841893    -0.11800
C771        C  0.34262553  0.06199576  0.91122456     0.02310
C772        C  0.36337198  0.06475528  0.91917435    -0.00010
C773        C  0.38324290  0.08500700  0.91364732    -0.11740
C774        C  0.38269641  0.10229440  0.90079769     0.02190
H775        H  0.32629737  0.07719119  0.89230347     0.15170
H776        H  0.39928241  0.08749250  0.91957780     0.15170
C777        C  0.40353856  0.12266297  0.89527967     0.36830
C778        C  0.32156449  0.04136036  0.91487155     0.36730
N779        N  0.42022872  0.13896861  0.89076307    -0.43520
N780        N  0.30456082  0.02491533  0.91770208    -0.43520
C781        C  0.08832305  0.71985182  0.06837621     0.00070
C782        C  0.09371416  0.70698024  0.05305689    -0.11800
C783        C  0.07691726  0.68797834  0.04081728     0.02310
C784        C  0.05423883  0.68190352  0.04341012    -0.00010
C785        C  0.04892640  0.69506840  0.05840299    -0.11740
C786        C  0.06570200  0.71377237  0.07108485     0.02190
H787        H  0.11110435  0.71164946  0.05089052     0.15170
H788        H  0.03158285  0.69058484  0.06043034     0.15170
C789        C  0.05936244  0.72688624  0.08605451     0.36830
C790        C  0.08355974  0.67555003  0.02508389     0.36730
N791        N  0.05430811  0.73742511  0.09803777    -0.43520
N792        N  0.08894668  0.66560153  0.01253468    -0.43520
C793        C  0.71688743  0.61851943  0.89119128     0.00070
C794        C  0.71508398  0.61432655  0.91708948    -0.11800
C795        C  0.69723397  0.61268523  0.93098388     0.02310
C796        C  0.68027353  0.61459311  0.91902342    -0.00010
C797        C  0.68186046  0.61891249  0.89342767    -0.11740
C798        C  0.70006144  0.62132273  0.87952461     0.02190
H799        H  0.72749258  0.61209819  0.92673979     0.15170
H800        H  0.66898130  0.62084018  0.88434061     0.15170
C801        C  0.70109753  0.62764825  0.85372608     0.36830
C802        C  0.69654254  0.60883766  0.95750782     0.36730
N803        N  0.70154517  0.63281215  0.83311059    -0.43520
N804        N  0.69601361  0.60586019  0.97878398    -0.43520
C805        C  0.87321349  0.61400283  0.89590036     0.00070
C806        C  0.86553328  0.59985104  0.91689013    -0.11800
C807        C  0.88028023  0.59649783  0.93155707     0.02310
C808        C  0.90324875  0.60770048  0.92554906    -0.00010
C809        C  0.91106781  0.62209478  0.90487933    -0.11740
C810        C  0.89629349  0.62518171  0.88991807     0.02190
H811        H  0.84789961  0.59121771  0.92175988     0.15170
H812        H  0.92878947  0.63087170  0.90035095     0.15170
C813        C  0.90548771  0.64058435  0.86920396     0.36830
C814        C  0.87162874  0.58214194  0.95319289     0.36730
N815        N  0.91297185  0.65293978  0.85261149    -0.43520
N816        N  0.86473788  0.57071537  0.97059768    -0.43520
C817        C  0.98508020  0.47127425  0.97522564     0.00070
C818        C  0.97010177  0.47115366  0.99277918    -0.11800
C819        C  0.96750312  0.48976115  0.99533768     0.02310
C820        C  0.97992199  0.50870241  0.98001078    -0.00010
C821        C  0.99491799  0.50883056  0.96247499    -0.11740
C822        C  0.99751524  0.49022358  0.95991466     0.02190
H823        H  0.96055592  0.45656276  0.00458442     0.15170
H824        H  0.00450335  0.52344193  0.95070692     0.15170
C825        C  0.01264097  0.49071446  0.94117220     0.36830
C826        C  0.95249096  0.48933101  0.01418993     0.36730
N827        N  0.02468913  0.49105528  0.92608146    -0.43520
N828        N  0.94055070  0.48905289  0.02938111    -0.43520
C829        C  0.09578453  0.37071722  0.06058154     0.00070
C830        C  0.08167357  0.35297685  0.04492205    -0.11800
C831        C  0.06518051  0.35365999  0.03054215     0.02310
C832        C  0.06264301  0.37274875  0.03153030    -0.00010
C833        C  0.07717775  0.39058036  0.04733991    -0.11740
C834        C  0.09360984  0.38972970  0.06164221     0.02190
H835        H  0.08348266  0.33836786  0.04406190     0.15170
H836        H  0.07588086  0.40539980  0.04875914     0.15170
C837        C  0.10876265  0.40902455  0.07636767     0.36830
C838        C  0.05172852  0.33441658  0.01500349     0.36730
N839        N  0.12105357  0.42454333  0.08799748    -0.43520
N840        N  0.04121915  0.31859774  0.00292827    -0.43520
C841        C  0.50386680  0.51151325  0.97917793     0.00070
C842        C  0.48661093  0.50678744  0.96221860    -0.11800
C843        C  0.46643834  0.48604350  0.96276138     0.02310
C844        C  0.46332491  0.46968775  0.98054205    -0.00010
C845        C  0.48058973  0.47440256  0.99748862    -0.11740
C846        C  0.50074425  0.49517183  0.99698592     0.02670
H847        H  0.48897512  0.51926444  0.94843154     0.15170
H848        H  0.47822817  0.46191721  0.01126749     0.15170
C849        C  0.51783086  0.49955314  0.01518966     0.36830
C850        C  0.44933878  0.48167680  0.94458065     0.36730
N851        N  0.53150263  0.50312811  0.02984493    -0.43520
N852        N  0.43564323  0.47809897  0.92995691    -0.43520
C853        C  0.28662288  0.36706399  0.04025398     0.00070
C854        C  0.29077744  0.38156379  0.06043627    -0.11800
C855        C  0.27319435  0.38106666  0.07370956     0.02310
C856        C  0.25078732  0.36575868  0.06693098    -0.00010
C857        C  0.24652676  0.35135591  0.04673382    -0.11740
C858        C  0.26408293  0.35177693  0.03344627     0.02190
H859        H  0.30788277  0.39342471  0.06594819     0.15170
H860        H  0.22932594  0.33963058  0.04132193     0.15170
C861        C  0.25821413  0.33689274  0.01241125     0.36830
C862        C  0.27869550  0.39727128  0.09331967     0.36730
N863        N  0.25321083  0.32480881  0.99564039    -0.43520
N864        N  0.28315286  0.41035291  0.10894008    -0.43520
C865        C  0.36104731  0.25692590  0.89601618     0.00070
C866        C  0.34638725  0.25199130  0.91613125    -0.11800
C867        C  0.34699890  0.26910124  0.93054032     0.02310
C868        C  0.36275795  0.29186681  0.92497379    -0.00010
C869        C  0.37751263  0.29665899  0.90484947    -0.11740
C870        C  0.37681942  0.27951685  0.89047708     0.02190
H871        H  0.33433020  0.23461140  0.92060162     0.15170
H872        H  0.38972567  0.31391371  0.90021893     0.15170
C873        C  0.39330406  0.28555944  0.87104369     0.36830
C874        C  0.33176734  0.26248636  0.95136177     0.36730
N875        N  0.40662217  0.29041835  0.85558797    -0.43520
N876        N  0.31938436  0.25686463  0.96793056    -0.43520
C877        C  0.87749259  0.25921680  0.88957343     0.00070
C878        C  0.89644033  0.27449365  0.87558849    -0.11800
C879        C  0.91405435  0.29383219  0.88644536     0.02310
C880        C  0.91318897  0.29802855  0.91187035    -0.00010
C881        C  0.89457619  0.28301710  0.92601933    -0.11740
C882        C  0.87665989  0.26387883  0.91516788     0.02190
H883        H  0.89770414  0.27137709  0.85607891     0.15170
H884        H  0.89389539  0.28649685  0.94558924     0.15170
C885        C  0.85748965  0.25020716  0.93077995     0.36830
C886        C  0.93287784  0.30914573  0.87118021     0.36730
N887        N  0.84229784  0.23951699  0.94366535    -0.43520
N888        N  0.94793885  0.32147525  0.85895787    -0.43520
C889        C  0.50393909  0.99070245  0.98039528     0.00070
C890        C  0.48400213  0.97049879  0.98557436    -0.11800
C891        C  0.46316964  0.96908145  0.98506082     0.02310
C892        C  0.46188067  0.98832722  0.97940335    -0.00010
C893        C  0.48185230  0.00858371  0.97439190    -0.11740
C894        C  0.50269296  0.00998265  0.97487914     0.02190
H895        H  0.48455273  0.95546638  0.98948355     0.15170
H896        H  0.48130592  0.02361477  0.97045327     0.15170
C897        C  0.52238399  0.03168562  0.97050961     0.36830
C898        C  0.44355422  0.94732532  0.98941601     0.36730
N899        N  0.53801712  0.04917715  0.96690015    -0.43520
N900        N  0.42801119  0.92977236  0.99303102    -0.43520
C901        C  0.67888293  0.06477966  0.92131874     0.00070
C902        C  0.69619285  0.08245083  0.93460784    -0.11800
C903        C  0.71472234  0.09992565  0.92230971     0.02310
C904        C  0.71664414  0.09938159  0.89595791    -0.00010
C905        C  0.69906400  0.08126586  0.88288989    -0.11740
C906        C  0.68022051  0.06432497  0.89524780     0.02190
H907        H  0.69488309  0.08290864  0.95471661     0.15170
H908        H  0.69987365  0.08003920  0.86288654     0.15170
C909        C  0.66266334  0.04633700  0.88084293     0.36830
C910        C  0.73056331  0.11834147  0.93757933     0.36730
N911        N  0.64854284  0.03191858  0.86936622    -0.43520
N912        N  0.74288761  0.13288120  0.95037362    -0.43520
C913        C  0.60380848  0.91648579  0.04279288     0.00070
C914        C  0.58732136  0.89394391  0.03892261    -0.11800
C915        C  0.58850506  0.87668804  0.05103781     0.02310
C916        C  0.60615674  0.88195592  0.06787848    -0.00010
C917        C  0.62241250  0.90449091  0.07210222    -0.11740
C918        C  0.62155959  0.92172605  0.05950152     0.02190
H919        H  0.57361586  0.88979278  0.02615377     0.15170
H920        H  0.63597379  0.90861924  0.08507376     0.15170
C921        C  0.63868928  0.94462562  0.06469748     0.36830
C922        C  0.57101030  0.85379200  0.04649811     0.36730
N923        N  0.65244811  0.96297814  0.06882277    -0.43520
N924        N  0.55699737  0.83544112  0.04284935    -0.43520
C925        C  0.60496010  0.68844677  0.03665941     0.00070
C926        C  0.59144838  0.69718048  0.02981105    -0.11800
C927        C  0.59265468  0.71531268  0.04266058     0.02310
C928        C  0.60728741  0.72472777  0.06327776    -0.00010
C929        C  0.62061896  0.71576015  0.07026113    -0.11740
C930        C  0.61976540  0.69796513  0.05700369     0.02190
H931        H  0.57999136  0.68987497  0.01422225     0.15170
H932        H  0.63190310  0.72280580  0.08602143     0.15170
C933        C  0.63360985  0.68921925  0.06523556     0.36830
C934        C  0.57805811  0.72327109  0.03475374     0.36730
N935        N  0.64468936  0.68219540  0.07186660    -0.43520
N936        N  0.56637655  0.72962854  0.02826142    -0.43520
loop_ 
_geom_bond_atom_site_label_1 
_geom_bond_atom_site_label_2 
_geom_bond_distance 
_geom_bond_site_symmetry_2 
_ccdc_geom_bond_type 
N1            N2   1.322       .  A
N1            C5   1.344       .  A
N1           Cu9   2.065       .  S
N2            C3   1.345       .  A
N2           Cu8   2.075       .  S
C3            C4   1.384       .  A
C3            H6   1.082       .  S
C4            C5   1.382       .  A
C4          C916   1.477       .  S
C5            H7   1.082       .  S
Cu8          N11   2.076       .  S
Cu9          N19   2.066       .  S
Cu10         N12   2.087       .  S
Cu10         N18   2.087       .  S
N11          N12   1.323       .  A
N11          C15   1.345       .  A
N12          C13   1.348       .  A
C13          C14   1.385       .  A
C13          H16   1.081       .  S
C14          C15   1.383       .  A
C14         C302   1.475       .  S
C15          H17   1.082       .  S
N18          N19   1.322       .  A
N18          C22   1.347       .  A
N19          C20   1.343       .  A
C20          C21   1.384       .  A
C20          H23   1.081       .  S
C21          C22   1.388       .  A
C21         C928   1.486       .  S
C22          H24   1.081       .  S
N25          N26   1.321       .  A
N25          C29   1.344       .  A
N25         Cu33   2.075   1_556  S
N26          C27   1.343   1_565  A
N26         Cu32   2.066   1_565  S
C27          C28   1.386   1_545  A
C27          H30   1.080       .  S
C28          C29   1.389       .  A
C28         C889   1.488       .  S
C29          H31   1.082   1_556  S
Cu32         N35   2.066       .  S
Cu33         N43   2.075       .  S
Cu34         N36   2.068   1_565  S
Cu34         N42   2.069   1_556  S
N35          N36   1.322       .  A
N35          C39   1.344       .  A
N36          C37   1.345       .  A
C37          C38   1.381       .  A
C37          H40   1.081       .  S
C38          C39   1.380       .  A
C38         C901   1.471       .  S
C39          H41   1.081       .  S
N42          N43   1.322       .  A
N42          C46   1.344       .  A
N43          C44   1.345       .  A
C44          C45   1.384       .  A
C44          H47   1.082       .  S
C45          C46   1.383       .  A
C45         C913   1.478       .  S
C46          H48   1.082       .  S
N49          N50   1.319       .  A
N49          C53   1.344       .  A
N49         Cu57   2.072       .  S
N50          C51   1.343       .  A
N50         Cu56   2.066       .  S
C51          C52   1.389       .  A
C51          H54   1.082       .  S
C52          C53   1.391       .  A
C52         C877   1.494       .  S
C53          H55   1.078       .  S
Cu56         N59   2.066       .  S
Cu57         N67   2.072       .  S
Cu58         N60   2.071       .  S
Cu58         N66   2.071       .  S
N59          N60   1.322       .  A
N59          C63   1.343       .  A
N60          C61   1.344       .  A
C61          C62   1.382       .  A
C61          H64   1.082       .  S
C62          C63   1.381       .  A
C62         C542   1.467       .  S
C63          H65   1.082       .  S
N66          N67   1.319       .  A
N66          C70   1.343       .  A
N67          C68   1.343       .  A
C68          C69   1.392       .  A
C68          H71   1.075       .  S
C69          C70   1.393       .  A
C69         C904   1.500       .  S
C70          H72   1.081       .  S
N73          N74   1.321       .  A
N73          C77   1.344       .  A
N73         Cu81   2.068   1_554  S
N74          C75   1.345       .  A
N74         Cu80   2.082       .  S
C75          C76   1.389       .  A
C75          H78   1.081       .  S
C76          C77   1.387       .  A
C76         C853   1.490       .  S
C77          H79   1.081       .  S
Cu80         N83   2.083   1_554  S
Cu81         N91   2.068       .  S
Cu82         N84   2.085       .  S
Cu82         N90   2.084       .  S
N83          N84   1.323       .  A
N83          C87   1.347       .  A
N84          C85   1.348       .  A
C85          C86   1.383       .  A
C85          H88   1.081       .  S
C86          C87   1.383       .  A
C86         C844   1.480       .  S
C87          H89   1.081   1_556  S
N90          N91   1.321       .  A
N90          C94   1.345       .  A
N91          C92   1.344       .  A
C92          C93   1.387       .  A
C92          H95   1.081       .  S
C93          C94   1.390       .  A
C93         C868   1.492       .  S
C94          H96   1.081       .  S
N97          N98   1.321       .  A
N97         C101   1.345       .  A
N97        Cu105   2.070       .  S
N98          C99   1.344       .  A
N98        Cu104   2.070       .  S
C99         C100   1.384       .  A
C99         H102   1.081       .  S
C100        C101   1.384       .  A
C100        C856   1.480       .  S
C101        H103   1.082       .  S
Cu104       N107   2.070       .  S
Cu105       N115   2.070       .  S
Cu106       N108   2.076       .  S
Cu106       N114   2.076       .  S
N107        N108   1.322       .  A
N107        C111   1.344       .  A
N108        C109   1.346       .  A
C109        C110   1.384       .  A
C109        H112   1.082       .  S
C110        C111   1.382       .  A
C110        C350   1.471       .  S
C111        H113   1.081       .  S
N114        N115   1.323       .  A
N114        C118   1.346       .  A
N115        C116   1.344       .  A
C116        C117   1.380       .  A
C116        H119   1.082       .  S
C117        C118   1.382       .  A
C117        C829   1.474       .  S
C118        H120   1.082       .  S
N121        N122   1.324       .  A
N121        C125   1.346   1_655  A
N121       Cu129   2.080   1_655  S
N122        C123   1.344       .  A
N122       Cu128   2.068       .  S
C123        C124   1.378       .  A
C123        H126   1.082       .  S
C124        C125   1.382   1_655  A
C124        C817   1.470       .  S
C125        H127   1.082       .  S
Cu128       N131   2.068       .  S
Cu129       N139   2.080       .  S
Cu130       N132   2.065       .  S
Cu130       N138   2.066   1_655  S
N131        N132   1.321       .  A
N131        C135   1.345       .  A
N132        C133   1.344       .  A
C133        C134   1.380       .  A
C133        H136   1.081       .  S
C134        C135   1.381       .  A
C134        C880   1.469       .  S
C135        H137   1.081       .  S
N138        N139   1.319       .  A
N138        C142   1.341   1_556  A
N139        C140   1.344   1_556  A
C140        C141   1.396       .  A
C140        H143   1.081       .  S
C141        C142   1.391       .  A
C141        C832   1.503       .  S
C142        H144   1.075       .  S
N145        N146   1.319       .  A
N145        C149   1.345       .  A
N145       Cu153   2.078       .  S
N146        C147   1.344       .  A
N146       Cu152   2.074       .  S
C147        C148   1.393       .  A
C147        H150   1.077       .  S
C148        C149   1.394       .  A
C148        C793   1.503       .  S
C149        H151   1.081       .  S
Cu152       N155   2.074       .  S
Cu153       N163   2.078       .  S
Cu154       N156   2.083       .  S
Cu154       N162   2.083       .  S
N155        N156   1.322       .  A
N155        C159   1.345       .  A
N156        C157   1.347       .  A
C157        C158   1.386       .  A
C157        H160   1.082       .  S
C158        C159   1.383       .  A
C158        C446   1.475       .  S
C159        H161   1.081       .  S
N162        N163   1.323       .  A
N162        C166   1.346       .  A
N163        C164   1.345       .  A
C164        C165   1.385       .  A
C164        H167   1.082       .  S
C165        C166   1.387       .  A
C165        C805   1.486       .  S
C166        H168   1.081       .  S
N169        N170   1.323       .  A
N169        C173   1.346       .  A
N169       Cu177   2.080       .  S
N170        C171   1.343       .  A
N170       Cu176   2.063   1_656  S
C171        C172   1.378       .  A
C171        H174   1.082   1_656  S
C172        C173   1.382       .  A
C172        C820   1.470       .  S
C173        H175   1.082       .  S
Cu176       N179   2.063       .  S
Cu177       N187   2.080       .  S
Cu178       N180   2.074   1_656  S
Cu178       N186   2.074       .  S
N179        N180   1.321       .  A
N179        C183   1.343       .  A
N180        C181   1.345       .  A
C181        C182   1.385       .  A
C181        H184   1.081       .  S
C182        C183   1.383       .  A
C182        C784   1.479       .  S
C183        H185   1.081       .  S
N186        N187   1.324       .  A
N186        C190   1.345       .  A
N187        C188   1.346       .  A
C188        C189   1.383       .  A
C188        H191   1.082       .  S
C189        C190   1.381       .  A
C189        C808   1.476       .  S
C190        H192   1.082       .  S
N193        N194   1.323       .  A
N193        C197   1.346       .  A
N193       Cu201   2.076   1_554  S
N194        C195   1.346       .  A
N194       Cu200   2.084   1_554  S
C195        C196   1.384       .  A
C195        H198   1.082       .  S
C196        C197   1.383       .  A
C196        C925   1.480       .  S
C197        H199   1.083       .  S
Cu200       N203   2.085       .  S
Cu201       N211   2.076       .  S
Cu202       N204   2.085       .  S
Cu202       N210   2.084       .  S
N203        N204   1.323       .  A
N203        C207   1.348       .  A
N204        C205   1.347       .  A
C205        C206   1.383       .  A
C205        H208   1.081       .  S
C206        C207   1.383       .  A
C206        C841   1.479       .  S
C207        H209   1.081       .  S
N210        N211   1.324       .  A
N210        C214   1.347       .  A
N211        C212   1.346       .  A
C212        C213   1.381       .  A
C212        H215   1.083       .  S
C213        C214   1.382       .  A
C213        C796   1.476       .  S
C214        H216   1.082       .  S
N217        N218   1.323       .  A
N217        C221   1.345       .  A
N217       Cu225   2.069       .  S
N218        C219   1.345       .  A
N218       Cu224   2.070       .  S
C219        C220   1.380       .  A
C219        H222   1.082       .  S
C220        C221   1.380       .  A
C220        C769   1.469       .  S
C221        H223   1.082       .  S
Cu224       N227   2.070       .  S
Cu225       N235   2.070       .  S
Cu226       N228   2.077       .  S
Cu226       N234   2.077       .  S
N227        N228   1.322       .  A
N227        C231   1.344       .  A
N228        C229   1.346       .  A
C229        C230   1.384       .  A
C229        H232   1.081       .  S
C230        C231   1.382       .  A
C230        C398   1.471       .  S
C231        H233   1.082       .  S
N234        N235   1.322       .  A
N234        C238   1.346       .  A
N235        C236   1.344       .  A
C236        C237   1.382       .  A
C236        H239   1.082       .  S
C237        C238   1.385       .  A
C237        C865   1.480       .  S
C238        H240   1.081       .  S
N241        N242   1.319       .  A
N241        C245   1.345       .  A
N241       Cu249   2.067   1_554  S
N242        C243   1.342       .  A
N242       Cu248   2.064   1_554  S
C243        C244   1.386       .  A
C243        H246   1.081       .  S
C244        C245   1.388       .  A
C244        C757   1.487       .  S
C245        H247   1.080       .  S
Cu248       N251   2.064       .  S
Cu249       N259   2.068   1_565  S
Cu250       N252   2.076   1_545  S
Cu250       N258   2.077       .  S
N251        N252   1.320       .  A
N251        C255   1.342       .  A
N252        C253   1.345   1_565  A
C253        C254   1.390   1_545  A
C253        H256   1.082       .  S
C254        C255   1.386       .  A
C254        C892   1.490       .  S
C255        H257   1.079   1_556  S
N258        N259   1.322       .  A
N258        C262   1.345       .  A
N259        C260   1.343       .  A
C260        C261   1.386       .  A
C260        H263   1.080       .  S
C261        C262   1.388       .  A
C261        C772   1.487       .  S
C262        H264   1.082       .  S
N265        N266   1.322       .  A
N265        C269   1.345       .  A
N265       Cu273   2.073       .  S
N266        C267   1.343       .  A
N266       Cu272   2.063       .  S
C267        C268   1.381       .  A
C267        H270   1.082       .  S
C268        C269   1.383       .  A
C268        C781   1.475       .  S
C269        H271   1.082       .  S
Cu272       N275   2.063       .  S
Cu273       N283   2.073       .  S
Cu274       N276   2.068       .  S
Cu274       N282   2.069       .  S
N275        N276   1.322       .  A
N275        C279   1.343       .  A
N276        C277   1.344       .  A
C277        C278   1.382       .  A
C277        H280   1.083       .  S
C278        C279   1.381       .  A
C278        C494   1.466       .  S
C279        H281   1.082       .  S
N282        N283   1.322       .  A
N282        C286   1.344       .  A
N283        C284   1.345       .  A
C284        C285   1.383       .  A
C284        H287   1.082       .  S
C285        C286   1.382       .  A
C285        C760   1.477       .  S
C286        H288   1.082       .  S
N289        N290   1.321       .  A
N289        C293   1.344       .  A
N289       Cu297   2.068       .  S
N290        C291   1.345       .  A
N290       Cu296   2.082       .  S
C291        C292   1.390       .  A
C291        H294   1.081       .  S
C292        C293   1.387       .  A
C292        C745   1.492       .  S
C293        H295   1.080       .  S
Cu296       N299   2.082       .  S
Cu297       N307   2.068       .  S
Cu298       N300   2.079       .  S
Cu298       N306   2.079       .  S
N299        N300   1.323       .  A
N299        C303   1.347       .  A
N300        C301   1.345       .  A
C301        C302   1.384       .  A
C301        H304   1.082       .  S
C302        C303   1.384       .  A
C303        H305   1.081       .  S
N306        N307   1.321       .  A
N306        C310   1.346       .  A
N307        C308   1.343       .  A
C308        C309   1.385       .  A
C308        H311   1.082       .  S
C309        C310   1.388       .  A
C309        C733   1.486       .  S
C310        H312   1.081       .  S
N313        N314   1.321       .  A
N313        C317   1.345       .  A
N313       Cu321   2.075   1_655  S
N314        C315   1.341       .  A
N314       Cu320   2.059       .  S
C315        C316   1.384       .  A
C315        H318   1.081       .  S
C316        C317   1.388       .  A
C316        C700   1.483       .  S
C317        H319   1.082   1_655  S
Cu320       N323   2.059       .  S
Cu321       N331   2.075       .  S
Cu322       N324   2.070       .  S
Cu322       N330   2.071   1_655  S
N323        N324   1.319       .  A
N323        C327   1.342       .  A
N324        C325   1.344       .  A
C325        C326   1.388       .  A
C325        H328   1.081       .  S
C326        C327   1.386       .  A
C326        C709   1.486       .  S
C327        H329   1.080       .  S
N330        N331   1.322       .  A
N330        C334   1.343       .  A
N331        C332   1.344       .  A
C332        C333   1.385       .  A
C332        H335   1.082       .  S
C333        C334   1.385       .  A
C333        C721   1.483       .  S
C334        H336   1.081       .  S
N337        N338   1.322       .  A
N337        C341   1.345       .  A
N337       Cu345   2.073       .  S
N338        C339   1.345       .  A
N338       Cu344   2.075       .  S
C339        C340   1.385       .  A
C339        H342   1.081       .  S
C340        C341   1.385       .  A
C340        C685   1.483       .  S
C341        H343   1.082       .  S
Cu344       N347   2.075       .  S
Cu345       N355   2.073       .  S
Cu346       N348   2.070       .  S
Cu346       N354   2.070       .  S
N347        N348   1.322       .  A
N347        C351   1.345       .  A
N348        C349   1.345       .  A
C349        C350   1.383       .  A
C349        H352   1.082       .  S
C350        C351   1.383       .  A
C351        H353   1.081       .  S
N354        N355   1.322       .  A
N354        C358   1.344       .  A
N355        C356   1.344       .  A
C356        C357   1.385       .  A
C356        H359   1.082       .  S
C357        C358   1.385       .  A
C357        C724   1.482       .  S
C358        H360   1.081       .  S
N361        N362   1.321       .  A
N361        C365   1.345       .  A
N361       Cu369   2.074       .  S
N362        C363   1.344       .  A
N362       Cu368   2.077       .  S
C363        C364   1.388       .  A
C363        H366   1.080       .  S
C364        C365   1.388       .  A
C364        C676   1.490       .  S
C365        H367   1.083       .  S
Cu368       N371   2.077       .  S
Cu369       N379   2.074       .  S
Cu370       N372   2.084       .  S
Cu370       N378   2.084       .  S
N371        N372   1.322       .  A
N371        C375   1.346       .  A
N372        C373   1.348       .  A
C373        C374   1.385       .  A
C373        H376   1.081       .  S
C374        C375   1.383       .  A
C374        C664   1.481       .  S
C375        H377   1.081       .  S
N378        N379   1.322       .  A
N378        C382   1.345       .  A
N379        C380   1.345       .  A
C380        C381   1.387       .  A
C380        H383   1.082       .  S
C381        C382   1.388       .  A
C381        C688   1.490       .  S
C382        H384   1.081       .  S
N385        N386   1.322       .  A
N385        C389   1.344       .  A
N385       Cu393   2.068       .  S
N386        C387   1.345       .  A
N386       Cu392   2.072       .  S
C387        C388   1.382       .  A
C387        H390   1.082       .  S
C388        C389   1.380       .  A
C388        C652   1.473       .  S
C389        H391   1.082       .  S
Cu392       N395   2.073       .  S
Cu393       N403   2.068       .  S
Cu394       N396   2.076       .  S
Cu394       N402   2.076       .  S
N395        N396   1.323       .  A
N395        C399   1.345       .  A
N396        C397   1.346       .  A
C397        C398   1.383       .  A
C397        H400   1.081       .  S
C398        C399   1.383       .  A
C399        H401   1.082       .  S
N402        N403   1.323       .  A
N402        C406   1.346       .  A
N403        C404   1.344       .  A
C404        C405   1.379       .  A
C404        H407   1.082       .  S
C405        C406   1.381       .  A
C405        C673   1.471       .  S
C406        H408   1.082       .  S
N409        N410   1.322       .  A
N409        C413   1.345   1_565  A
N409       Cu417   2.079   1_565  S
N410        C411   1.341       .  A
N410       Cu416   2.059       .  S
C411        C412   1.383       .  A
C411        H414   1.081       .  S
C412        C413   1.388   1_565  A
C412        C625   1.483       .  S
C413        H415   1.082       .  S
Cu416       N419   2.059       .  S
Cu417       N427   2.079       .  S
Cu418       N420   2.064       .  S
Cu418       N426   2.065   1_565  S
N419        N420   1.319       .  A
N419        C423   1.342       .  A
N420        C421   1.343       .  A
C421        C422   1.387       .  A
C421        H424   1.081       .  S
C422        C423   1.387       .  A
C422        C637   1.485       .  S
C423        H425   1.080       .  S
N426        N427   1.319       .  A
N426        C430   1.341       .  A
N427        C428   1.344       .  A
C428        C429   1.396       .  A
C428        H431   1.081       .  S
C429        C430   1.391       .  A
C429        C649   1.503       .  S
C430        H432   1.073       .  S
N433        N434   1.321       .  A
N433        C437   1.344       .  A
N433       Cu441   2.067       .  S
N434        C435   1.346       .  A
N434       Cu440   2.084       .  S
C435        C436   1.390       .  A
C435        H438   1.081       .  S
C436        C437   1.387       .  A
C436        C601   1.491       .  S
C437        H439   1.081       .  S
Cu440       N443   2.084       .  S
Cu441       N451   2.067       .  S
Cu442       N444   2.077       .  S
Cu442       N450   2.077       .  S
N443        N444   1.323       .  A
N443        C447   1.346       .  A
N444        C445   1.347       .  A
C445        C446   1.384       .  A
C445        H448   1.082       .  S
C446        C447   1.385       .  A
C447        H449   1.081       .  S
N450        N451   1.323       .  A
N450        C454   1.346       .  A
N451        C452   1.344       .  A
C452        C453   1.380       .  A
C452        H455   1.082       .  S
C453        C454   1.383       .  A
C453        C613   1.473       .  S
C454        H456   1.082       .  S
N457        N458   1.321       .  A
N457        C461   1.344       .  A
N457       Cu465   2.071       .  S
N458        C459   1.342       .  A
N458       Cu464   2.062   1_655  S
C459        C460   1.384       .  A
C459        H462   1.081   1_655  S
C460        C461   1.387       .  A
C460        C697   1.483       .  S
C461        H463   1.082       .  S
Cu464       N467   2.062       .  S
Cu465       N475   2.072       .  S
Cu466       N468   2.072   1_655  S
Cu466       N474   2.072       .  S
N467        N468   1.321       .  A
N467        C471   1.343       .  A
N468        C469   1.345       .  A
C469        C470   1.384       .  A
C469        H472   1.081       .  S
C470        C471   1.383       .  A
C470        C589   1.478       .  S
C471        H473   1.081       .  S
N474        N475   1.322       .  A
N474        C478   1.344       .  A
N475        C476   1.344       .  A
C476        C477   1.386       .  A
C476        H479   1.081       .  S
C477        C478   1.386       .  A
C477        C616   1.485       .  S
C478        H480   1.082       .  S
N481        N482   1.321       .  A
N481        C485   1.343       .  A
N481       Cu489   2.068       .  S
N482        C483   1.343       .  A
N482       Cu488   2.069       .  S
C483        C484   1.386       .  A
C483        H486   1.082       .  S
C484        C485   1.387       .  A
C484        C592   1.486       .  S
C485        H487   1.080       .  S
Cu488       N491   2.069       .  S
Cu489       N499   2.068       .  S
Cu490       N492   2.063       .  S
Cu490       N498   2.063       .  S
N491        N492   1.322       .  A
N491        C495   1.343       .  A
N492        C493   1.343       .  A
C493        C494   1.381       .  A
C493        H496   1.082       .  S
C494        C495   1.382       .  A
C495        H497   1.082       .  S
N498        N499   1.322       .  A
N498        C502   1.343       .  A
N499        C500   1.344       .  A
C500        C501   1.382       .  A
C500        H503   1.082       .  S
C501        C502   1.381       .  A
C501        C640   1.473       .  S
C502        H504   1.082       .  S
N505        N506   1.323       .  A
N505        C509   1.347       .  A
N505       Cu513   2.078       .  S
N506        C507   1.345       .  A
N506       Cu512   2.078       .  S
C507        C508   1.384       .  A
C507        H510   1.082       .  S
C508        C509   1.384       .  A
C508        C748   1.482       .  S
C509        H511   1.083       .  S
Cu512       N515   2.078       .  S
Cu513       N523   2.078       .  S
Cu514       N516   2.083       .  S
Cu514       N522   2.083       .  S
N515        N516   1.322       .  A
N515        C519   1.346       .  A
N516        C517   1.348       .  A
C517        C518   1.385       .  A
C517        H520   1.081       .  S
C518        C519   1.383       .  A
C518        C661   1.481       .  S
C519        H521   1.081       .  S
N522        N523   1.323       .  A
N522        C526   1.345       .  A
N523        C524   1.346       .  A
C524        C525   1.384       .  A
C524        H527   1.083       .  S
C525        C526   1.385       .  A
C525        C604   1.483       .  S
C526        H528   1.081       .  S
N529        N530   1.323       .  A
N529        C533   1.344       .  A
N529       Cu537   2.070       .  S
N530        C531   1.344       .  A
N530       Cu536   2.068       .  S
C531        C532   1.379       .  A
C531        H534   1.082       .  S
C532        C533   1.380       .  A
C532        C712   1.468       .  S
C533        H535   1.082       .  S
Cu536       N539   2.068       .  S
Cu537       N547   2.070       .  S
Cu538       N540   2.065       .  S
Cu538       N546   2.065       .  S
N539        N540   1.322       .  A
N539        C543   1.343       .  A
N540        C541   1.344       .  A
C541        C542   1.381       .  A
C541        H544   1.082       .  S
C542        C543   1.382       .  A
C543        H545   1.082       .  S
N546        N547   1.322       .  A
N546        C550   1.344       .  A
N547        C548   1.345       .  A
C548        C549   1.380       .  A
C548        H551   1.082       .  S
C549        C550   1.379       .  A
C549        C577   1.468       .  S
C550        H552   1.082       .  S
N553        N554   1.319       .  A
N553        C557   1.345       .  A
N553       Cu561   2.077       .  S
N554        C555   1.340   1_565  A
N554       Cu560   2.053   1_565  S
C555        C556   1.384   1_545  A
C555        H558   1.080       .  S
C556        C557   1.390       .  A
C556        C628   1.486       .  S
C557        H559   1.082       .  S
Cu560       N563   2.053       .  S
Cu561       N571   2.078       .  S
Cu562       N564   2.077   1_565  S
Cu562       N570   2.078       .  S
N563        N564   1.316       .  A
N563        C567   1.340       .  A
N564        C565   1.344       .  A
C565        C566   1.397       .  A
C565        H568   1.079       .  S
C566        C567   1.391       .  A
C566        C580   1.501       .  S
C567        H569   1.073       .  S
N570        N571   1.324       .  A
N570        C574   1.345       .  A
N571        C572   1.345       .  A
C572        C573   1.382       .  A
C572        H575   1.083       .  S
C573        C574   1.381       .  A
C573        C736   1.475       .  S
C574        H576   1.082       .  S
C577        C578   1.395       .  A
C577        C582   1.403       .  A
C578        C579   1.400       .  A
C578        H583   1.085       .  S
C579        C580   1.426       .  A
C579        C586   1.442       .  S
C580        C581   1.412       .  A
C581        C582   1.399       .  A
C581        H584   1.080       .  S
C582        C585   1.444       .  S
C585        N587   1.157       .  T
C586        N588   1.158       .  T
C589        C590   1.402       .  A
C589        C594   1.411       .  A
C590        C591   1.400       .  A
C590        H595   1.085       .  S
C591        C592   1.416       .  A
C591        C598   1.443       .  S
C592        C593   1.406       .  A
C593        C594   1.399       .  A
C593        H596   1.084       .  S
C594        C597   1.444       .  S
C597        N599   1.157       .  T
C598        N600   1.157       .  T
C601        C602   1.406       .  A
C601        C606   1.418       .  A
C602        C603   1.401       .  A
C602        H607   1.084       .  S
C603        C604   1.411       .  A
C603        C610   1.444       .  S
C604        C605   1.403       .  A
C605        C606   1.403       .  A
C605        H608   1.085       .  S
C606        C609   1.444       .  S
C609        N611   1.158       .  T
C610        N612   1.157       .  T
C613        C614   1.400       .  A
C613        C618   1.408       .  A
C614        C615   1.400       .  A
C614        H619   1.085       .  S
C615        C616   1.416       .  A
C615        C622   1.443       .  S
C616        C617   1.407       .  A
C617        C618   1.400       .  A
C617        H620   1.085       .  S
C618        C621   1.444       .  S
C621        N623   1.157       .  T
C622        N624   1.157       .  T
C625        C626   1.402       .  A
C625        C630   1.415       .  A
C626        C627   1.399       .  A
C626        H631   1.084   1_565  S
C627        C628   1.416       .  A
C627        C634   1.444   1_565  S
C628        C629   1.404       .  A
C629        C630   1.400       .  A
C629        H632   1.084       .  S
C630        C633   1.444       .  S
C633        N635   1.157       .  T
C634        N636   1.157       .  T
C637        C638   1.407       .  A
C637        C642   1.417       .  A
C638        C639   1.398       .  A
C638        H643   1.084       .  S
C639        C640   1.408       .  A
C639        C646   1.444       .  S
C640        C641   1.401       .  A
C641        C642   1.399       .  A
C641        H644   1.085       .  S
C642        C645   1.443       .  S
C645        N647   1.157       .  T
C646        N648   1.157       .  T
C649        C650   1.413       .  A
C649        C654   1.425       .  A
C650        C651   1.400       .  A
C650        H655   1.080       .  S
C651        C652   1.404       .  A
C651        C658   1.444       .  S
C652        C653   1.396       .  A
C653        C654   1.401       .  A
C653        H656   1.085       .  S
C654        C657   1.442       .  S
C657        N659   1.158       .  T
C658        N660   1.157       .  T
C661        C662   1.403       .  A
C661        C666   1.412       .  A
C662        C663   1.403       .  A
C662        H667   1.085       .  S
C663        C664   1.411       .  A
C663        C670   1.444       .  S
C664        C665   1.403       .  A
C665        C666   1.404       .  A
C665        H668   1.085       .  S
C666        C669   1.444       .  S
C669        N671   1.157       .  T
C670        N672   1.157       .  T
C673        C674   1.399       .  A
C673        C678   1.406       .  A
C674        C675   1.401       .  A
C674        H679   1.085       .  S
C675        C676   1.418       .  A
C675        C682   1.443       .  S
C676        C677   1.409       .  A
C677        C678   1.401       .  A
C677        H680   1.083       .  S
C678        C681   1.444       .  S
C681        N683   1.157       .  T
C682        N684   1.157       .  T
C685        C686   1.403       .  A
C685        C690   1.412       .  A
C686        C687   1.403       .  A
C686        H691   1.085       .  S
C687        C688   1.417       .  A
C687        C694   1.443       .  S
C688        C689   1.406       .  A
C689        C690   1.400       .  A
C689        H692   1.084       .  S
C690        C693   1.444       .  S
C693        N695   1.157       .  T
C694        N696   1.157       .  T
C697        C698   1.403       .  A
C697        C702   1.414       .  A
C698        C699   1.398       .  A
C698        H703   1.084       .  S
C699        C700   1.415       .  A
C699        C706   1.444       .  S
C700        C701   1.404       .  A
C701        C702   1.400       .  A
C701        H704   1.084       .  S
C702        C705   1.444       .  S
C705        N707   1.157       .  T
C706        N708   1.157       .  T
C709        C710   1.407       .  A
C709        C714   1.418       .  A
C710        C711   1.399       .  A
C710        H715   1.084       .  S
C711        C712   1.406       .  A
C711        C718   1.444       .  S
C712        C713   1.398       .  A
C713        C714   1.400       .  A
C713        H716   1.085       .  S
C714        C717   1.443       .  S
C717        N719   1.157       .  T
C718        N720   1.157       .  T
C721        C722   1.404       .  A
C721        C726   1.414       .  A
C722        C723   1.400       .  A
C722        H727   1.084       .  S
C723        C724   1.413       .  A
C723        C730   1.444       .  S
C724        C725   1.404       .  A
C725        C726   1.400       .  A
C725        H728   1.084       .  S
C726        C729   1.444       .  S
C729        N731   1.157       .  T
C730        N732   1.157       .  T
C733        C734   1.407       .  A
C733        C738   1.415       .  A
C734        C735   1.400       .  A
C734        H739   1.084       .  S
C735        C736   1.408       .  A
C735        C742   1.444       .  S
C736        C737   1.401       .  A
C737        C738   1.401       .  A
C737        H740   1.085       .  S
C738        C741   1.443       .  S
C741        N743   1.157       .  T
C742        N744   1.157       .  T
C745        C746   1.407       .  A
C745        C750   1.419       .  A
C746        C747   1.400       .  A
C746        H751   1.083       .  S
C747        C748   1.410       .  A
C747        C754   1.444       .  S
C748        C749   1.402       .  A
C749        C750   1.403       .  A
C749        H752   1.085       .  S
C750        C753   1.443       .  S
C753        N755   1.158       .  T
C754        N756   1.157       .  T
C757        C758   1.406       .  A
C757        C762   1.416       .  A
C758        C759   1.398       .  A
C758        H763   1.084       .  S
C759        C760   1.409       .  A
C759        C766   1.444       .  S
C760        C761   1.402       .  A
C761        C762   1.401       .  A
C761        H764   1.085       .  S
C762        C765   1.443       .  S
C765        N767   1.157   1_554  T
C766        N768   1.157       .  T
C769        C770   1.398       .  A
C769        C774   1.406       .  A
C770        C771   1.400       .  A
C770        H775   1.085       .  S
C771        C772   1.418       .  A
C771        C778   1.443       .  S
C772        C773   1.407       .  A
C773        C774   1.400       .  A
C773        H776   1.084       .  S
C774        C777   1.444       .  S
C777        N779   1.157       .  T
C778        N780   1.157       .  T
C781        C782   1.401       .  A
C781        C786   1.410       .  A
C782        C783   1.400       .  A
C782        H787   1.085       .  S
C783        C784   1.414       .  A
C783        C790   1.444       .  S
C784        C785   1.404       .  A
C785        C786   1.400       .  A
C785        H788   1.085       .  S
C786        C789   1.444       .  S
C789        N791   1.157       .  T
C790        N792   1.157       .  T
C793        C794   1.412       .  A
C793        C798   1.423       .  A
C794        C795   1.402       .  A
C794        H799   1.081       .  S
C795        C796   1.405       .  A
C795        C802   1.444       .  S
C796        C797   1.398       .  A
C797        C798   1.403       .  A
C797        H800   1.085       .  S
C798        C801   1.442       .  S
C801        N803   1.158       .  T
C802        N804   1.157       .  T
C805        C806   1.406       .  A
C805        C810   1.415       .  A
C806        C807   1.401       .  A
C806        H811   1.084       .  S
C807        C808   1.408       .  A
C807        C814   1.444       .  S
C808        C809   1.401       .  A
C809        C810   1.402       .  A
C809        H812   1.085       .  S
C810        C813   1.443       .  S
C813        N815   1.157       .  T
C814        N816   1.157       .  T
C817        C818   1.402       .  A
C817        C822   1.409       .  A
C818        C819   1.400       .  A
C818        H823   1.085   1_556  S
C819        C820   1.409       .  A
C819        C826   1.444   1_556  S
C820        C821   1.402       .  A
C821        C822   1.400       .  A
C821        H824   1.085   1_655  S
C822        C825   1.444   1_655  S
C825        N827   1.157       .  T
C826        N828   1.157       .  T
C829        C830   1.397       .  A
C829        C834   1.405       .  A
C830        C831   1.401       .  A
C830        H835   1.085       .  S
C831        C832   1.425       .  A
C831        C838   1.442       .  S
C832        C833   1.412       .  A
C833        C834   1.400       .  A
C833        H836   1.081       .  S
C834        C837   1.444       .  S
C837        N839   1.157       .  T
C838        N840   1.158       .  T
C841        C842   1.403       .  A
C841        C846   1.411       .  A
C842        C843   1.404       .  A
C842        H847   1.084       .  S
C843        C844   1.411       .  A
C843        C850   1.443       .  S
C844        C845   1.403       .  A
C845        C846   1.404       .  A
C845        H848   1.084   1_556  S
C846        C849   1.443   1_556  S
C849        N851   1.157       .  T
C850        N852   1.157       .  T
C853        C854   1.406       .  A
C853        C858   1.417       .  A
C854        C855   1.400       .  A
C854        H859   1.084       .  S
C855        C856   1.411       .  A
C855        C862   1.444       .  S
C856        C857   1.402       .  A
C857        C858   1.401       .  A
C857        H860   1.086       .  S
C858        C861   1.443       .  S
C861        N863   1.157   1_554  T
C862        N864   1.157       .  T
C865        C866   1.402       .  A
C865        C870   1.409       .  A
C866        C867   1.402       .  A
C866        H871   1.086       .  S
C867        C868   1.418       .  A
C867        C874   1.443       .  S
C868        C869   1.407       .  A
C869        C870   1.400       .  A
C869        H872   1.084       .  S
C870        C873   1.444       .  S
C873        N875   1.157       .  T
C874        N876   1.158       .  T
C877        C878   1.410       .  A
C877        C882   1.420       .  A
C878        C879   1.399       .  A
C878        H883   1.083       .  S
C879        C880   1.404       .  A
C879        C886   1.444       .  S
C880        C881   1.397       .  A
C881        C882   1.401       .  A
C881        H884   1.085       .  S
C882        C885   1.442       .  S
C885        N887   1.158       .  T
C886        N888   1.157       .  T
C889        C890   1.404       .  A
C889        C894   1.415   1_565  A
C890        C891   1.399       .  A
C890        H895   1.084       .  S
C891        C892   1.416       .  A
C891        C898   1.443       .  S
C892        C893   1.405   1_565  A
C893        C894   1.401       .  A
C893        H896   1.084       .  S
C894        C897   1.444       .  S
C897        N899   1.158       .  T
C898        N900   1.158       .  T
C901        C902   1.397       .  A
C901        C906   1.404       .  A
C902        C903   1.401       .  A
C902        H907   1.085       .  S
C903        C904   1.423       .  A
C903        C910   1.442       .  S
C904        C905   1.412       .  A
C905        C906   1.399       .  A
C905        H908   1.081       .  S
C906        C909   1.445       .  S
C909        N911   1.157       .  T
C910        N912   1.158       .  T
C913        C914   1.403       .  A
C913        C918   1.413       .  A
C914        C915   1.400       .  A
C914        H919   1.085       .  S
C915        C916   1.412       .  A
C915        C922   1.444       .  S
C916        C917   1.402       .  A
C917        C918   1.400       .  A
C917        H920   1.085       .  S
C918        C921   1.444       .  S
C921        N923   1.157       .  T
C922        N924   1.157       .  T
C925        C926   1.401       .  A
C925        C930   1.411       .  A
C926        C927   1.402       .  A
C926        H931   1.085       .  S
C927        C928   1.416       .  A
C927        C934   1.444       .  S
C928        C929   1.405       .  A
C929        C930   1.402       .  A
C929        H932   1.085       .  S
C930        C933   1.444       .  S
C933        N935   1.157       .  T
C934        N936   1.157       .  T
