geometry optimzed in LAMMPS
_audit_creation_date              2020-12-01 
_audit_creation_method            'lammps2cif' 
_symmetry_space_group_name_H-M    'P1' 
_symmetry_Int_Tables_number       1 
_symmetry_cell_setting            triclinic 
loop_ 
_symmetry_equiv_pos_as_xyz 
  x,y,z 
_cell_length_a                    34.68468949 
_cell_length_b                    26.488597005374217 
_cell_length_c                    35.16590098509106 
_cell_angle_alpha                 90.51452270213802 
_cell_angle_beta                  89.79693321936497 
_cell_angle_gamma                 90.50351993025106 
loop_ 
_atom_site_label 
_atom_site_type_symbol 
_atom_site_fract_x 
_atom_site_fract_y 
_atom_site_fract_z 
_atom_site_charge 
O1          O  0.61126862  0.52798428  0.06767897    -0.73100
O2          O  0.61646792  0.56084188  0.95633726    -0.74100
O3          O  0.55503243  0.54527873  0.00955943    -0.62700
O4          O  0.67143697  0.54343692  0.01366784    -0.71100
O5          O  0.67097418  0.46198383  0.99826719    -0.70700
O6          O  0.55439448  0.46348209  0.99544052    -0.61900
O7          O  0.61437840  0.47940800  0.94087459    -0.74400
O8          O  0.61196474  0.44648766  0.05240793    -0.73200
Cu9        Cu  0.61338467  0.54720643  0.01231659     1.04600
Cu10       Cu  0.61271139  0.45997390  0.99627206     1.04300
C11         C  0.61255499  0.48173695  0.07749471     0.93100
C12         C  0.61675666  0.52572506  0.93120464     0.92200
C13         C  0.53634613  0.50465255  0.00173827     0.84400
C14         C  0.68950363  0.50255691  0.00647205     0.90600
O15         O  0.47504597  0.46449457  0.99249782    -0.73100
O16         O  0.35846332  0.46511281  0.99018890    -0.74100
O17         O  0.41785937  0.48172165  0.93539292    -0.62700
O18         O  0.41474076  0.44810925  0.04676804    -0.71100
O19         O  0.41660187  0.52966051  0.06189598    -0.70700
O20         O  0.41704272  0.56324326  0.95066251    -0.61900
O21         O  0.35924988  0.54666020  0.00533797    -0.74400
O22         O  0.47562772  0.54628834  0.00664627    -0.73200
Cu23       Cu  0.41667661  0.46199407  0.99069866     1.04600
Cu24       Cu  0.41731460  0.54927980  0.00664982     1.04300
C25         C  0.49370875  0.50519625  0.00014980     0.93100
C26         C  0.34058771  0.50619324  0.99717143     0.92200
C27         C  0.41642078  0.52801834  0.92562468     0.84400
C28         C  0.41474472  0.48340648  0.07177481     0.90600
C29         C  0.42500514  0.65169312  0.68315311     0.86300
C30         C  0.46848667  0.64999351  0.68794604    -0.53900
C31         C  0.48989399  0.67427802  0.66079685     0.09200
C32         C  0.46421664  0.69968180  0.63062246     0.20200
C33         C  0.41569764  0.70773940  0.68033615    -0.54600
C34         C  0.43700883  0.73445128  0.65421283     0.09300
C35         C  0.41772580  0.63105650  0.64338835    -0.54200
C36         C  0.43773913  0.65608912  0.61558441     0.09900
H37         H  0.48038577  0.62999474  0.71179112     0.14400
H38         H  0.48037951  0.71939214  0.60789568     0.00200
H39         H  0.39394767  0.72422007  0.69810300     0.14700
H40         H  0.39794936  0.59994454  0.63749776     0.14500
C41         C  0.43103835  0.36787494  0.31831701     0.86300
C42         C  0.47471460  0.36918235  0.31481813    -0.53900
C43         C  0.49454791  0.34833084  0.34437845     0.09200
C44         C  0.46731851  0.32529377  0.37471300     0.20200
C45         C  0.42075211  0.31249859  0.32405704    -0.54600
C46         C  0.44069916  0.28827840  0.35206865     0.09300
C47         C  0.42235894  0.39231904  0.35662626    -0.54200
C48         C  0.44085296  0.37002979  0.38638698     0.09900
H49         H  0.48787017  0.38599579  0.29007561     0.14400
H50         H  0.48214813  0.30784354  0.39905957     0.00200
H51         H  0.39914324  0.29474019  0.30672378     0.14700
H52         H  0.40276178  0.42379940  0.36016710     0.14500
N53         N  0.39373560  0.42271565  0.46758180    -0.27500
N54         N  0.42653557  0.44851785  0.46875158    -0.35300
C55         C  0.45115592  0.42796993  0.44332035     0.00900
C56         C  0.43320004  0.38707975  0.42562915     0.06900
C57         C  0.39685947  0.38523110  0.44184620    -0.06200
H58         H  0.47808673  0.44547166  0.43469990     0.07600
H59         H  0.37261394  0.36320801  0.43146906     0.08800
Cu60       Cu  0.43288488  0.51698842  0.49840966     0.44200
Cu61       Cu  0.34174229  0.44820415  0.48931766     0.42000
Cu62       Cu  0.34185950  0.58023408  0.50925546     0.43900
N63         N  0.42628435  0.58415520  0.52951294    -0.34800
N64         N  0.39306037  0.60807804  0.53153518    -0.29100
C65         C  0.39518539  0.64372834  0.55883036    -0.05200
C66         C  0.43134400  0.64263211  0.57529098     0.07000
C67         C  0.45025494  0.60413874  0.55589971     0.00800
H68         H  0.37031963  0.66321190  0.57017092     0.08500
H69         H  0.47716990  0.58713779  0.56416934     0.07500
N70         N  0.29164229  0.53832370  0.50245061    -0.36300
N71         N  0.29154825  0.48881079  0.49754715    -0.28500
C72         C  0.25485791  0.47189862  0.49707831    -0.03700
C73         C  0.23080783  0.51289864  0.50176703     0.04900
C74         C  0.25504385  0.55441673  0.50497815     0.03000
H75         H  0.24634180  0.43283167  0.49304776     0.08100
H76         H  0.24675904  0.59326346  0.50966716     0.06900
C77         C  0.42704792  0.87447068  0.68499067     0.86300
C78         C  0.41776577  0.81812611  0.68237055    -0.53900
C79         C  0.43751622  0.79161622  0.65483582     0.09200
C80         C  0.46399206  0.82662043  0.63058296     0.20200
C81         C  0.47063941  0.87688242  0.68820426    -0.54600
C82         C  0.49089253  0.85293626  0.65994366     0.09300
C83         C  0.41824313  0.89442195  0.64559778    -0.54200
C84         C  0.43712060  0.86947330  0.61689315     0.09900
H85         H  0.39799009  0.80110599  0.70193315     0.14400
H86         H  0.47922720  0.80705019  0.60707917     0.00200
H87         H  0.48345324  0.89658409  0.71209020     0.14700
H88         H  0.39852686  0.92530899  0.64065795     0.14500
C89         C  0.43022640  0.14751702  0.32493425     0.86300
C90         C  0.42230004  0.12770510  0.36454259    -0.53900
C91         C  0.44161947  0.15375826  0.39250829     0.09200
C92         C  0.46780682  0.19761917  0.37779081     0.20200
C93         C  0.42033613  0.20318060  0.32738755    -0.54600
C94         C  0.44058657  0.23118203  0.35375648     0.09300
C95         C  0.47380891  0.14653802  0.32048614    -0.54200
C96         C  0.49440219  0.17170644  0.34804847     0.09900
H97         H  0.40292955  0.09617851  0.37019096     0.14400
H98         H  0.48327085  0.21832231  0.40067468     0.00200
H99         H  0.39960330  0.21821086  0.30793774     0.14700
H100        H  0.48625129  0.12665835  0.29664868     0.14500
N101        N  0.39620926  0.10497453  0.47500507    -0.27500
N102        N  0.42820766  0.07823413  0.47487222    -0.35300
C103        C  0.45281557  0.09826098  0.44924454     0.00900
C104        C  0.43574402  0.13978187  0.43256477     0.06900
C105        C  0.39995255  0.14270074  0.44995908    -0.06200
H106        H  0.47857218  0.07955418  0.43928682     0.07600
H107        H  0.37599045  0.16494571  0.44018525     0.08800
Cu108      Cu  0.43288994  0.00868594  0.50209584     0.44200
Cu109      Cu  0.34365868  0.07917806  0.49603297     0.42000
Cu110      Cu  0.34104780  0.94590513  0.51222485     0.43900
N111        N  0.42548401  0.94132752  0.53190560    -0.34800
N112        N  0.39186972  0.91763955  0.53401027    -0.29100
C113        C  0.39370773  0.88210537  0.56092704    -0.05200
C114        C  0.43010214  0.88307544  0.57694762     0.07000
C115        C  0.44944616  0.92131449  0.55775857     0.00800
H116        H  0.36868025  0.86271686  0.57229865     0.08500
H117        H  0.47669683  0.93820127  0.56591555     0.07500
N118        N  0.29182079  0.98867478  0.50533206    -0.36300
N119        N  0.29259909  0.03833867  0.50197883    -0.28500
C120        C  0.25613670  0.05532962  0.50083557    -0.03700
C121        C  0.23133678  0.01423662  0.50335177     0.04900
C122        C  0.25493031  0.97262992  0.50609908     0.03000
H123        H  0.24829839  0.09451603  0.49773744     0.08100
H124        H  0.24596541  0.93366521  0.50923319     0.06900
O125        O  0.67258725  0.97205396  0.00925618    -0.73100
O126        O  0.55606980  0.97771248  0.01001676    -0.74100
O127        O  0.61451361  0.95793492  0.95410462    -0.62700
O128        O  0.61547704  0.99134706  0.06595578    -0.71100
O129        O  0.61877354  0.07266753  0.05146479    -0.70700
O130        O  0.61563095  0.03930039  0.93950354    -0.61900
O131        O  0.55848687  0.05933451  0.99650678    -0.74400
O132        O  0.67439894  0.05350545  0.99490079    -0.73200
Cu133      Cu  0.61433871  0.97188571  0.01030841     1.04600
Cu134      Cu  0.61672688  0.05901025  0.99515092     1.04300
C135        C  0.69172886  0.01229433  0.00191150     0.93100
C136        C  0.53891752  0.01929768  0.00331346     0.92200
C137        C  0.61600131  0.99289388  0.92930150     0.84400
C138        C  0.61875117  0.03756064  0.07620308     0.90600
O139        O  0.36183223  0.06374563  0.99530642    -0.73100
O140        O  0.47879312  0.06229415  0.99685436    -0.74100
O141        O  0.42093777  0.04694039  0.93969261    -0.62700
O142        O  0.41856867  0.07982715  0.05175176    -0.71100
O143        O  0.41900947  0.99820170  0.06553820    -0.70700
O144        O  0.41786310  0.96539900  0.95359927    -0.61900
O145        O  0.47704264  0.98034879  0.00931724    -0.74400
O146        O  0.36107426  0.98224915  0.00950080    -0.73200
Cu147      Cu  0.42028097  0.06612787  0.99543366     1.04600
Cu148      Cu  0.41890248  0.97878719  0.00993879     1.04300
C149        C  0.34316432  0.02297280  0.00233360     0.93100
C150        C  0.49628848  0.02083752  0.00320626     0.92200
C151        C  0.41832212  0.00076370  0.92911778     0.84400
C152        C  0.41751145  0.04438375  0.07617393     0.90600
C153        C  0.59833923  0.87767845  0.68286218     0.86300
C154        C  0.55478704  0.88007613  0.68650602    -0.53900
C155        C  0.53424843  0.85399159  0.65937457     0.09200
C156        C  0.56086421  0.82690634  0.63028990     0.20200
C157        C  0.60732819  0.82151476  0.68161619    -0.54600
C158        C  0.58710532  0.79333285  0.65530771     0.09300
C159        C  0.60722404  0.89600688  0.64305122    -0.54200
C160        C  0.58791989  0.86974860  0.61519575     0.09900
H161        H  0.54231370  0.90159394  0.70961564     0.14400
H162        H  0.54538355  0.80598960  0.60753986     0.00200
H163        H  0.62755999  0.80636152  0.70152283     0.14700
H164        H  0.62710964  0.92692088  0.63721358     0.14500
C165        C  0.60172361  0.15070851  0.32288670     0.86300
C166        C  0.55811481  0.14728808  0.31983088    -0.53900
C167        C  0.53780525  0.17193591  0.34778666     0.09200
C168        C  0.56470895  0.19870404  0.37696482     0.20200
C169        C  0.61046343  0.20712206  0.32474763    -0.54600
C170        C  0.59078540  0.23374142  0.35222374     0.09300
C171        C  0.61107525  0.13143646  0.36228251    -0.54200
C172        C  0.59192098  0.15613444  0.39088440     0.09900
H173        H  0.54547504  0.12658736  0.29643130     0.14400
H174        H  0.54941534  0.21837009  0.40037740     0.00200
H175        H  0.62971014  0.22374870  0.30423616     0.14700
H176        H  0.63095627  0.10074595  0.36726419     0.14500
N177        N  0.63636158  0.10583374  0.47354825    -0.27500
N178        N  0.60326516  0.08070516  0.47420591    -0.35300
C179        C  0.57943887  0.10117852  0.44839898     0.00900
C180        C  0.59821453  0.14128540  0.43077458     0.06900
C181        C  0.63423797  0.14271140  0.44765163    -0.06200
H182        H  0.55270155  0.08376586  0.43923098     0.07600
H183        H  0.65902453  0.16375725  0.43750886     0.08800
Cu184      Cu  0.59610507  0.01213140  0.50296303     0.44200
Cu185      Cu  0.68747198  0.07936484  0.49645998     0.42000
Cu186      Cu  0.68659449  0.94652995  0.51331545     0.43900
N187        N  0.60146339  0.94333981  0.53155573    -0.34800
N188        N  0.63427234  0.91844913  0.53302550    -0.29100
C189        C  0.63096653  0.88146966  0.55874072    -0.05200
C190        C  0.59455433  0.88283911  0.57497599     0.07000
C191        C  0.57668016  0.92274413  0.55683305     0.00800
H192        H  0.65534469  0.86107635  0.56974727     0.08500
H193        H  0.55004047  0.94028465  0.56561727     0.07500
N194        N  0.73712165  0.98860458  0.50871446    -0.36300
N195        N  0.73741815  0.03824273  0.50516776    -0.28500
C196        C  0.77422053  0.05486536  0.50485605    -0.03700
C197        C  0.79816114  0.01357454  0.50800072     0.04900
C198        C  0.77368697  0.97219432  0.51037836     0.03000
H199        H  0.78291216  0.09386554  0.50128803     0.08100
H200        H  0.78182137  0.93309087  0.51331602     0.06900
C201        C  0.59640370  0.65511616  0.68902026     0.86300
C202        C  0.60664767  0.63319461  0.65025122    -0.53900
C203        C  0.58851152  0.65615435  0.62063863     0.09200
C204        C  0.56097802  0.69958733  0.63290454     0.20200
C205        C  0.60542635  0.71138644  0.68562531    -0.54600
C206        C  0.58645604  0.73619684  0.65715677     0.09300
C207        C  0.55274483  0.65219041  0.69119875    -0.54200
C208        C  0.53325839  0.67477657  0.66214841     0.09900
H209        H  0.62671354  0.60228587  0.64639024     0.14400
H210        H  0.54641162  0.71775412  0.60871159     0.00200
H211        H  0.62477725  0.72949370  0.70509380     0.14700
H212        H  0.53934692  0.63327485  0.71500615     0.14500
C213        C  0.60234436  0.37377984  0.32358148     0.86300
C214        C  0.61159388  0.31769672  0.32580329    -0.53900
C215        C  0.59089958  0.29086467  0.35237348     0.09200
C216        C  0.56378064  0.32541366  0.37617359     0.20200
C217        C  0.55884796  0.37557263  0.31901835    -0.54600
C218        C  0.53781239  0.35044267  0.34601338     0.09300
C219        C  0.61008045  0.39422495  0.36329650    -0.54200
C220        C  0.59016807  0.36921217  0.39113639     0.09900
H221        H  0.63226248  0.30150836  0.30643662     0.14400
H222        H  0.54782781  0.30556008  0.39895946     0.00200
H223        H  0.54670488  0.39595201  0.29556567     0.14700
H224        H  0.62977537  0.42545056  0.36908780     0.14500
N225        N  0.63429240  0.41689567  0.47578971    -0.27500
N226        N  0.60205418  0.44319522  0.47626135    -0.35300
C227        C  0.57823070  0.42406474  0.44940685     0.00900
C228        C  0.59601996  0.38354994  0.43137895     0.06900
C229        C  0.63153182  0.38051302  0.44903159    -0.06200
H230        H  0.55227235  0.44256763  0.44003708     0.07600
H231        H  0.65581556  0.35873274  0.43896620     0.08800
Cu232      Cu  0.59606962  0.51125232  0.50663665     0.44200
Cu233      Cu  0.68589518  0.44129921  0.49992482     0.42000
Cu234      Cu  0.68757717  0.57437025  0.51837028     0.43900
N235        N  0.60273451  0.57915461  0.53717455    -0.34800
N236        N  0.63626910  0.60301033  0.53961766    -0.29100
C237        C  0.63368752  0.63989142  0.56595309    -0.05200
C238        C  0.59682126  0.63984673  0.58119196     0.07000
C239        C  0.57807316  0.60046813  0.56226495     0.00800
H240        H  0.65836324  0.66010541  0.57736132     0.08500
H241        H  0.55043713  0.58419062  0.56994546     0.07500
N242        N  0.73717676  0.53182866  0.51208012    -0.36300
N243        N  0.73667687  0.48213862  0.50824258    -0.28500
C244        C  0.77324357  0.46539522  0.50747383    -0.03700
C245        C  0.79782735  0.50669543  0.51063192     0.04900
C246        C  0.77398280  0.54814528  0.51344022     0.03000
H247        H  0.78132036  0.42628644  0.50381513     0.08100
H248        H  0.78271387  0.58723918  0.51674200     0.06900
O249        O  0.17049963  0.47129759  0.51006653    -0.73100
O250        O  0.05434113  0.46893717  0.51085894    -0.74100
O251        O  0.11407746  0.45480478  0.45431211    -0.62700
O252        O  0.11252702  0.48594868  0.56673676    -0.71100
O253        O  0.11361552  0.56768816  0.55320527    -0.70700
O254        O  0.11196010  0.53667731  0.44150394    -0.61900
O255        O  0.05387200  0.55105020  0.49894697    -0.74400
O256        O  0.17009261  0.55309311  0.49671424    -0.73200
Cu257      Cu  0.11263212  0.46733365  0.51090502     1.04600
Cu258      Cu  0.11212519  0.55493514  0.49713552     1.04300
C259        C  0.18849888  0.51244009  0.50297094     0.93100
C260        C  0.03576404  0.50980018  0.50572025     0.92200
C261        C  0.11479174  0.49083758  0.43036440     0.84400
C262        C  0.11424768  0.53212207  0.57746438     0.90600
O263        O  0.85842282  0.54807025  0.50318195    -0.73100
O264        O  0.97465944  0.55025813  0.50230513    -0.74100
O265        O  0.91643118  0.53329280  0.44683681    -0.62700
O266        O  0.91529497  0.56525239  0.55856703    -0.71100
O267        O  0.91703997  0.48366388  0.57240874    -0.70700
O268        O  0.91531176  0.45160155  0.46056402    -0.61900
O269        O  0.97502724  0.46831118  0.51483461    -0.74400
O270        O  0.85859879  0.46645519  0.51705635    -0.73200
Cu271      Cu  0.91639639  0.55206935  0.50233370     1.04600
Cu272      Cu  0.91672357  0.46464370  0.51671684     1.04300
C273        C  0.84025619  0.50701844  0.51028359     0.93100
C274        C  0.99318617  0.50942588  0.50772837     0.92200
C275        C  0.91484599  0.48712979  0.43622562     0.84400
C276        C  0.91466056  0.52982368  0.58296455     0.90600
C277        C  0.92445586  0.65301529  0.82682524     0.86300
C278        C  0.91430378  0.70838752  0.83229289    -0.53900
C279        C  0.93620646  0.73464048  0.85846869     0.09200
C280        C  0.96394096  0.69930905  0.88036020     0.20200
C281        C  0.96787749  0.65284668  0.82080782    -0.54600
C282        C  0.98942582  0.67561088  0.84885530     0.09300
C283        C  0.91816313  0.63023052  0.86577195    -0.54200
C284        C  0.93814094  0.65444065  0.89416023     0.09900
H285        H  0.89208749  0.72483546  0.81547948     0.14400
H286        H  0.98011849  0.71832635  0.90358029     0.00200
H287        H  0.97949623  0.63527566  0.79554858     0.14700
H288        H  0.89887677  0.59841166  0.87077788     0.14500
C289        C  0.93375725  0.37835823  0.18895400     0.86300
C290        C  0.92464276  0.39771621  0.14949906    -0.53900
C291        C  0.94319678  0.37202651  0.12100595     0.09200
C292        C  0.96969731  0.32895550  0.13502112     0.20200
C293        C  0.92394064  0.32217172  0.18718574    -0.54600
C294        C  0.94306110  0.29492912  0.15977952     0.09300
C295        C  0.97744562  0.38054942  0.19194725    -0.54200
C296        C  0.99712388  0.35506449  0.16406161     0.09900
H297        H  0.90498551  0.42860732  0.14436954     0.14400
H298        H  0.98448157  0.30871030  0.11160516     0.00200
H299        H  0.90395850  0.30600571  0.20744061     0.14700
H300        H  0.99078260  0.40150255  0.21495335     0.14500
N301        N  0.89387208  0.60139732  0.97629021    -0.27500
N302        N  0.92728934  0.57786466  0.97697314    -0.35300
C303        C  0.95112266  0.59954495  0.95135256     0.00900
C304        C  0.93204576  0.63898716  0.93395216     0.06900
C305        C  0.89584438  0.63869394  0.95072617    -0.06200
H306        H  0.97812493  0.58323521  0.94207995     0.07600
H307        H  0.87088117  0.65858539  0.94049474     0.08800
Cu308      Cu  0.93461071  0.50994156  0.00575822     0.44200
Cu309      Cu  0.84284941  0.57143017  0.99802464     0.42000
Cu310      Cu  0.84421617  0.43885630  0.01483808     0.43900
N311        N  0.92900277  0.44255681  0.03586690    -0.34800
N312        N  0.89659951  0.41592641  0.03742858    -0.29100
C313        C  0.89996698  0.38059884  0.06438033    -0.05200
C314        C  0.93600834  0.38483025  0.08095500     0.07000
C315        C  0.95352790  0.42476015  0.06211662     0.00800
H316        H  0.87588645  0.35887684  0.07532806     0.08500
H317        H  0.97980513  0.44398084  0.07062839     0.07500
N318        N  0.79317471  0.47879092  0.00852919    -0.36300
N319        N  0.79294177  0.52846932  0.00531802    -0.28500
C320        C  0.75620155  0.54434616  0.00468864    -0.03700
C321        C  0.73204040  0.50264689  0.00720522     0.04900
C322        C  0.75646019  0.46162247  0.00955395     0.03000
H323        H  0.74770153  0.58327558  0.00157481     0.08100
H324        H  0.74817302  0.42235397  0.01236740     0.06900
C325        C  0.93078771  0.87209642  0.82362559     0.86300
C326        C  0.97417279  0.87067550  0.81793900    -0.53900
C327        C  0.99473581  0.84832005  0.84628249     0.09200
C328        C  0.96818485  0.82666129  0.87795584     0.20200
C329        C  0.91862091  0.81744676  0.82971070    -0.54600
C330        C  0.93885488  0.79168832  0.85668723     0.09300
C331        C  0.92501337  0.89678435  0.86243236    -0.54200
C332        C  0.94401554  0.87292310  0.89120738     0.09900
H333        H  0.98662772  0.88759105  0.79290950     0.14400
H334        H  0.98356111  0.80791929  0.90140483     0.00200
H335        H  0.89547017  0.80139840  0.81340797     0.14700
H336        H  0.90641031  0.92904196  0.86712371     0.14500
C337        C  0.92994845  0.15497160  0.18763351     0.86300
C338        C  0.97359681  0.15170106  0.19015703    -0.53900
C339        C  0.99391030  0.17698646  0.16260090     0.09200
C340        C  0.96705788  0.20307238  0.13384983     0.20200
C341        C  0.92181878  0.21139218  0.18651307    -0.54600
C342        C  0.94168173  0.23795936  0.15919622     0.09300
C343        C  0.92003718  0.13563955  0.14806186    -0.54200
C344        C  0.93925974  0.16036841  0.11963948     0.09900
H345        H  0.98627750  0.13054928  0.21286416     0.14400
H346        H  0.98241878  0.22269067  0.11057099     0.00200
H347        H  0.90280998  0.22814876  0.20743159     0.14700
H348        H  0.89984117  0.10479048  0.14284021     0.14500
N349        N  0.89498902  0.10920087  0.03600218    -0.27500
N350        N  0.92806223  0.08481813  0.03519617    -0.35300
C351        C  0.95170420  0.10563212  0.06149432     0.00900
C352        C  0.93284172  0.14521342  0.07961809     0.06900
C353        C  0.89690212  0.14595990  0.06255761    -0.06200
H354        H  0.97842040  0.08874783  0.07055445     0.07600
H355        H  0.87206227  0.16645086  0.07285630     0.08800
Cu356      Cu  0.93517412  0.01666211  0.00535474     0.44200
Cu357      Cu  0.84444649  0.08094027  0.01216633     0.42000
Cu358      Cu  0.84551465  0.94671338  0.99577655     0.43900
N359        N  0.93014587  0.94817915  0.97538602    -0.34800
N360        N  0.89776591  0.92151342  0.97428749    -0.29100
C361        C  0.90113989  0.88477983  0.94794720    -0.05200
C362        C  0.93715204  0.88817796  0.93107996     0.07000
C363        C  0.95468609  0.92910605  0.94920173     0.00800
H364        H  0.87701613  0.86267666  0.93737830     0.08500
H365        H  0.98096391  0.94785135  0.94028437     0.07500
N366        N  0.79504928  0.98778528  0.00103200    -0.36300
N367        N  0.79494542  0.03757645  0.00405236    -0.28500
C368        C  0.75828333  0.05359869  0.00439587    -0.03700
C369        C  0.73412342  0.01191353  0.00183349     0.04900
C370        C  0.75835428  0.97072202  0.99976626     0.03000
H371        H  0.74982452  0.09265018  0.00736258     0.08100
H372        H  0.75000104  0.93141240  0.99703029     0.06900
O373        O  0.17090296  0.05513034  0.51086012    -0.73100
O374        O  0.05459465  0.05427794  0.51060311    -0.74100
O375        O  0.11268298  0.03841402  0.56681453    -0.62700
O376        O  0.11398685  0.07073504  0.45541351    -0.71100
O377        O  0.11241674  0.98914156  0.44028889    -0.70700
O378        O  0.11346620  0.95686482  0.55162848    -0.61900
O379        O  0.05420490  0.97246468  0.49645352    -0.74400
O380        O  0.17047651  0.97351134  0.49586101    -0.73200
Cu381      Cu  0.11285450  0.05750204  0.51141451     1.04600
Cu382      Cu  0.11246109  0.97013990  0.49558250     1.04300
C383        C  0.18893407  0.01436664  0.50331720     0.93100
C384        C  0.03604956  0.01334502  0.50345597     0.92200
C385        C  0.11420085  0.99215266  0.57662525     0.84400
C386        C  0.11425270  0.03539620  0.43046479     0.90600
O387        O  0.85836686  0.97283301  0.49873540    -0.73100
O388        O  0.97472733  0.97263006  0.49610004    -0.74100
O389        O  0.91659879  0.95462145  0.55260955    -0.62700
O390        O  0.91511623  0.99106812  0.44146908    -0.71100
O391        O  0.91478931  0.07214457  0.45796772    -0.70700
O392        O  0.91872494  0.03585864  0.56866780    -0.61900
O393        O  0.97545823  0.05409837  0.51135115    -0.74400
O394        O  0.85926839  0.05404579  0.51494962    -0.73200
Cu395      Cu  0.91636527  0.96992956  0.49664304     1.04600
Cu396      Cu  0.91729009  0.05683270  0.51375448     1.04300
C397        C  0.84057343  0.01345894  0.50728699     0.93100
C398        C  0.99344650  0.01334055  0.50354973     0.92200
C399        C  0.91701854  0.98940164  0.57803560     0.84400
C400        C  0.91326117  0.03760018  0.43238455     0.90600
C401        C  0.09550004  0.64880181  0.82299096     0.86300
C402        C  0.05191603  0.64834622  0.82007415    -0.53900
C403        C  0.03275351  0.67444707  0.84799139     0.09200
C404        C  0.06077180  0.69979739  0.87697491     0.20200
C405        C  0.10651312  0.70458989  0.82450091    -0.54600
C406        C  0.08824618  0.73266888  0.85220398     0.09300
C407        C  0.10421119  0.62935014  0.86241541    -0.54200
C408        C  0.08652122  0.65598064  0.89094845     0.09900
H409        H  0.03835178  0.62775717  0.79713210     0.14400
H410        H  0.04642362  0.72074449  0.90034808     0.00200
H411        H  0.12623389  0.71969930  0.80371145     0.14700
H412        H  0.12361121  0.59817011  0.86753461     0.14500
C413        C  0.10553041  0.37772286  0.18457355     0.86300
C414        C  0.06205353  0.37740426  0.19108026    -0.53900
C415        C  0.04042843  0.35438205  0.16321992     0.09200
C416        C  0.06572584  0.33086908  0.13154553     0.20200
C417        C  0.11609761  0.32251560  0.17874188    -0.54600
C418        C  0.09392981  0.29591435  0.15306971     0.09300
C419        C  0.11111154  0.40065453  0.14553259    -0.54200
C420        C  0.09089514  0.37608034  0.11746755     0.09900
H421        H  0.05030074  0.39509166  0.21632909     0.14400
H422        H  0.04954007  0.31158798  0.10847246     0.00200
H423        H  0.13943525  0.30639016  0.19443717     0.14700
H424        H  0.12997361  0.43281667  0.14023224     0.14500
N425        N  0.13311209  0.42510816  0.03293580    -0.27500
N426        N  0.10180076  0.45312502  0.03511526    -0.35300
C427        C  0.07844377  0.43411257  0.06224976     0.00900
C428        C  0.09553573  0.39181160  0.07766329     0.06900
C429        C  0.13016054  0.38760620  0.05826758    -0.06200
H430        H  0.05356282  0.45357243  0.07357641     0.07600
H431        H  0.15402874  0.36399005  0.06628193     0.08800
Cu432      Cu  0.09644144  0.52218207  0.00765863     0.44200
Cu433      Cu  0.18448957  0.44755858  0.00722108     0.42000
Cu434      Cu  0.18927216  0.57881792  0.98699581     0.43900
N435        N  0.10317290  0.58815373  0.97634947    -0.34800
N436        N  0.13716600  0.60972357  0.97059716    -0.29100
C437        C  0.13373070  0.64469742  0.94349173    -0.05200
C438        C  0.09598548  0.64512590  0.93080811     0.07000
C439        C  0.07744762  0.60872097  0.95251252     0.00800
H440        H  0.15813353  0.66198148  0.92926360     0.08500
H441        H  0.04910488  0.59284953  0.94710160     0.07500
N442        N  0.23810305  0.53465621  0.99244954    -0.36300
N443        N  0.23638559  0.48530505  0.99747890    -0.28500
C444        C  0.27253310  0.46720223  0.99923424    -0.03700
C445        C  0.29814930  0.50730547  0.99554853     0.04900
C446        C  0.27530116  0.54942991  0.99123336     0.03000
H447        H  0.27960831  0.42815706  0.00434880     0.08100
H448        H  0.28499369  0.58800983  0.98753242     0.06900
C449        C  0.10233272  0.87017024  0.82079833     0.86300
C450        C  0.11204478  0.81455352  0.82567891    -0.53900
C451        C  0.09112038  0.78960935  0.85296060     0.09200
C452        C  0.06482794  0.82594503  0.87621594     0.20200
C453        C  0.05864666  0.87136361  0.81707705    -0.54600
C454        C  0.03814853  0.84885869  0.84584251     0.09300
C455        C  0.11073626  0.89369704  0.85943388    -0.54200
C456        C  0.09168949  0.87070385  0.88880441     0.09900
H457        H  0.13338431  0.79678018  0.80803697     0.14400
H458        H  0.04951588  0.80783445  0.90021975     0.00200
H459        H  0.04604310  0.88944509  0.79279950     0.14700
H460        H  0.13063685  0.92518354  0.86346266     0.14500
C461        C  0.10117798  0.15807773  0.18713166     0.86300
C462        C  0.10891780  0.13477680  0.14822459    -0.53900
C463        C  0.09000504  0.15812667  0.11922702     0.09200
C464        C  0.06412902  0.20285894  0.13226990     0.20200
C465        C  0.11160761  0.21351615  0.18244974    -0.54600
C466        C  0.09185077  0.23879466  0.15485159     0.09300
C467        C  0.05767734  0.15718744  0.19157531    -0.54200
C468        C  0.03730012  0.17906848  0.16288202     0.09900
H469        H  0.12825602  0.10322526  0.14374919     0.14400
H470        H  0.04883884  0.22129960  0.10861332     0.00200
H471        H  0.13289193  0.23075572  0.20057764     0.14700
H472        H  0.04511489  0.13985096  0.21627805     0.14500
N473        N  0.13641222  0.10852696  0.03640020    -0.27500
N474        N  0.10403621  0.08179186  0.03552129    -0.35300
C475        C  0.07957584  0.10105255  0.06170565     0.00900
C476        C  0.09708801  0.14221535  0.07954158     0.06900
C477        C  0.13309856  0.14541605  0.06264124    -0.06200
H478        H  0.05312733  0.08254369  0.07061615     0.07600
H479        H  0.15715869  0.16793834  0.07283781     0.08800
Cu480      Cu  0.09835515  0.01389991  0.00476665     0.44200
Cu481      Cu  0.18848199  0.08466325  0.01333870     0.42000
Cu482      Cu  0.19016590  0.95233570  0.99266204     0.43900
N483        N  0.10532380  0.94707564  0.97307492    -0.34800
N484        N  0.13874940  0.92364888  0.97063709    -0.29100
C485        C  0.13622730  0.88715004  0.94394220    -0.05200
C486        C  0.09957741  0.88705720  0.92838972     0.07000
C487        C  0.08088605  0.92602040  0.94751230     0.00800
H488        H  0.16087996  0.86721183  0.93262213     0.08500
H489        H  0.05347235  0.94206961  0.93986924     0.07500
N490        N  0.23995480  0.99567718  0.00023649    -0.36300
N491        N  0.23941679  0.04523382  0.00495837    -0.28500
C492        C  0.27597095  0.06289661  0.00605142    -0.03700
C493        C  0.30066037  0.02235825  0.00215748     0.04900
C494        C  0.27682661  0.98036598  0.99865759     0.03000
H495        H  0.28395437  0.10210930  0.01029409     0.08100
H496        H  0.28564144  0.94161353  0.99457872     0.06900
C497        C  0.13121309  0.09261663  0.34297748     0.29600
C498        C  0.14116090  0.13262462  0.31919071    -0.36700
C499        C  0.13502084  0.12455135  0.28035841     0.15600
C500        C  0.11989226  0.08028694  0.26565399     0.21400
C501        C  0.11096213  0.03937549  0.28949147    -0.34900
C502        C  0.11719370  0.04742469  0.32859684     0.15500
O503        O  0.13169207  0.09403746  0.38032853    -0.26900
C504        C  0.11823446  0.04900596  0.39032630     0.05300
C505        C  0.10894951  0.01805606  0.35937970    -0.31800
O506        O  0.11017057  0.08459915  0.22953620    -0.23600
C507        C  0.11928963  0.13224428  0.22094417    -0.03600
C508        C  0.13562617  0.15825728  0.25172747    -0.18000
H509        H  0.15088820  0.16874066  0.33043028     0.20000
H510        H  0.09781976  0.00495702  0.27862932     0.18400
H511        H  0.09674819  0.98030554  0.35961716     0.18300
H512        H  0.14202294  0.19804861  0.25508218     0.14200
C513        C  0.12176622  0.94733158  0.74158845     0.29600
C514        C  0.11368766  0.98849292  0.71788916    -0.36700
C515        C  0.11871911  0.98014333  0.67859134     0.15600
C516        C  0.13085499  0.93445173  0.66390382     0.21400
C517        C  0.13995360  0.89414432  0.68751346    -0.34900
C518        C  0.13501037  0.90251108  0.72653257     0.15500
O519        O  0.11280384  0.94346506  0.77804282    -0.26900
C520        C  0.12059734  0.89556356  0.78652117     0.05300
C521        C  0.13519008  0.86888649  0.75527833    -0.31800
O522        O  0.13052174  0.93296614  0.62652493    -0.23600
C523        C  0.11838964  0.97843446  0.61676799    -0.03600
C524        C  0.11083392  0.00973655  0.64794928    -0.18000
H525        H  0.10203164  0.02340611  0.72905975     0.20000
H526        H  0.14819912  0.85770575  0.67607762     0.18400
H527        H  0.14000823  0.82885974  0.75197148     0.18300
H528        H  0.10000578  0.04794251  0.64798623     0.14200
C529        C  0.90808960  0.04953513  0.33283273     0.29600
C530        C  0.91490439  0.03665426  0.29447367    -0.36700
C531        C  0.90796885  0.07472114  0.26771395     0.15600
C532        C  0.89472536  0.12186535  0.27809915     0.21400
C533        C  0.88713812  0.13428816  0.31618819    -0.34900
C534        C  0.89483553  0.09680066  0.34284457     0.15500
O535        O  0.91599524  0.02172119  0.36286255    -0.26900
C536        C  0.90814653  0.05201576  0.39232287     0.05300
C537        C  0.89480075  0.09903566  0.38146361    -0.31800
O538        O  0.89647605  0.15435774  0.25004182    -0.23600
C539        C  0.91121872  0.12828409  0.22099802    -0.03600
C540        C  0.91804106  0.07796024  0.23018405    -0.18000
H541        H  0.92717780  0.00067947  0.28631548     0.20000
H542        H  0.87863089  0.17198365  0.32473482     0.18400
H543        H  0.88699659  0.13071734  0.39949829     0.18300
H544        H  0.93331342  0.05012965  0.21331523     0.14200
C545        C  0.91199366  0.94750013  0.74370235     0.29600
C546        C  0.92084060  0.98767771  0.71914609    -0.36700
C547        C  0.91504996  0.97830292  0.68011285     0.15600
C548        C  0.90150317  0.93255898  0.66632670     0.21400
C549        C  0.89165696  0.89317675  0.69083091    -0.34900
C550        C  0.89734444  0.90260303  0.72964689     0.15500
O551        O  0.92136540  0.94456600  0.78005500    -0.26900
C552        C  0.91233732  0.89720433  0.78957778     0.05300
C553        C  0.89668442  0.86994557  0.75899350    -0.31800
O554        O  0.90098496  0.93032429  0.62889966    -0.23600
C555        C  0.91399473  0.97541610  0.61832007    -0.03600
C556        C  0.92301795  0.00704038  0.64895719    -0.18000
H557        H  0.93352838  0.02267329  0.72949235     0.20000
H558        H  0.88218794  0.85662135  0.68019336     0.18400
H559        H  0.89094135  0.82991478  0.75636164     0.18300
H560        H  0.93456632  0.04513020  0.64829275     0.14200
C561        C  0.91284577  0.47936558  0.33657668     0.29600
C562        C  0.92068905  0.49373398  0.29888066    -0.36700
C563        C  0.91297620  0.45703913  0.27067501     0.15600
C564        C  0.89800112  0.41001349  0.27920839     0.21400
C565        C  0.88965362  0.39608163  0.31658291    -0.34900
C566        C  0.89817501  0.43203734  0.34460388     0.15500
O567        O  0.92058691  0.50575817  0.36774329    -0.26900
C568        C  0.91119446  0.47434349  0.39575321     0.05300
C569        C  0.89718596  0.42805825  0.38297443    -0.31800
O570        O  0.89906304  0.37862744  0.25018639    -0.23600
C571        C  0.91527676  0.40508154  0.22238119    -0.03600
C572        C  0.92361928  0.45482399  0.23323270    -0.18000
H573        H  0.93410978  0.52967567  0.29226260     0.20000
H574        H  0.87989326  0.35832067  0.32357063     0.18400
H575        H  0.88798782  0.39590765  0.39963021     0.18300
H576        H  0.94021365  0.48258781  0.21758717     0.14200
C577        C  0.90425048  0.57362943  0.74839949     0.29600
C578        C  0.91403967  0.53321639  0.72406169    -0.36700
C579        C  0.90823638  0.54100526  0.68499713     0.15600
C580        C  0.89356941  0.58540275  0.67106017     0.21400
C581        C  0.88249243  0.62480494  0.69537169    -0.34900
C582        C  0.88849560  0.61713920  0.73422078     0.15500
O583        O  0.91440078  0.57868269  0.78442378    -0.26900
C584        C  0.90511088  0.62608951  0.79355544     0.05300
C585        C  0.88798395  0.65113804  0.76324584    -0.31800
O586        O  0.89423227  0.58710799  0.63368246    -0.23600
C587        C  0.90917674  0.54307074  0.62326069    -0.03600
C588        C  0.91813621  0.51246963  0.65394479    -0.18000
H589        H  0.92793425  0.49967528  0.73454051     0.20000
H590        H  0.87247677  0.66049457  0.68451645     0.18400
H591        H  0.88151046  0.69073894  0.76039538     0.18300
H592        H  0.93136319  0.47560984  0.65342165     0.14200
C593        C  0.13802292  0.44037027  0.34087710     0.29600
C594        C  0.15018682  0.40286736  0.31536300    -0.36700
C595        C  0.14348042  0.41205112  0.27678775     0.15600
C596        C  0.12614879  0.45528467  0.26396727     0.21400
C597        C  0.11555401  0.49400542  0.28947477    -0.34900
C598        C  0.12195803  0.48461698  0.32822408     0.15500
O599        O  0.13727453  0.43664291  0.37821428    -0.26900
C600        C  0.12083295  0.47925427  0.38982436     0.05300
C601        C  0.11110420  0.51090727  0.36001330    -0.31800
O602        O  0.11509489  0.45108934  0.22813589    -0.23600
C603        C  0.12528877  0.40446151  0.21776018    -0.03600
C604        C  0.14416438  0.37926856  0.24699511    -0.18000
H605        H  0.16126064  0.36715199  0.32512440     0.20000
H606        H  0.10038145  0.52716758  0.28009663     0.18400
H607        H  0.09668300  0.54693527  0.36154214     0.18300
H608        H  0.15181773  0.33991476  0.24889402     0.14200
C609        C  0.13190651  0.61221801  0.73371511     0.29600
C610        C  0.14235078  0.62387109  0.69634757    -0.36700
C611        C  0.13274256  0.58773516  0.66870593     0.15600
C612        C  0.11501234  0.54231608  0.67711915     0.21400
C613        C  0.10522188  0.53012459  0.71480283    -0.34900
C614        C  0.11419408  0.56692002  0.74255818     0.15500
O615        O  0.13156806  0.64462655  0.76221855    -0.26900
C616        C  0.11324005  0.62037114  0.78993576     0.05300
C617        C  0.10273865  0.57113876  0.77961263    -0.31800
O618        O  0.10641238  0.51577401  0.64621300    -0.23600
C619        C  0.11838679  0.54517036  0.61790339    -0.03600
C620        C  0.13496712  0.59024124  0.63028029    -0.18000
H621        H  0.15447417  0.66031670  0.68895865     0.20000
H622        H  0.08950446  0.49587706  0.72166460     0.18400
H623        H  0.08442714  0.54525545  0.79525105     0.18300
H624        H  0.14637158  0.62086738  0.61329317     0.14200
C625        C  0.63756450  0.11865103  0.23239673     0.29600
C626        C  0.64534009  0.13178550  0.19467653    -0.36700
C627        C  0.63742538  0.09471623  0.16719645     0.15600
C628        C  0.62381095  0.04713643  0.17604385     0.21400
C629        C  0.61681484  0.03350115  0.21409095    -0.34900
C630        C  0.62391304  0.07123571  0.24172387     0.15500
O631        O  0.63581656  0.15078349  0.26102398    -0.26900
C632        C  0.62060221  0.12429949  0.28939368     0.05300
C633        C  0.61350997  0.07397613  0.27923192    -0.31800
O634        O  0.61569451  0.01990329  0.14529943    -0.23600
C635        C  0.62379886  0.05095976  0.11664529    -0.03600
C636        C  0.63749433  0.09781376  0.12870112    -0.18000
H637        H  0.65405284  0.16973505  0.18701427     0.20000
H638        H  0.60422060  0.99729267  0.22138652     0.18400
H639        H  0.59782869  0.04586960  0.29541242     0.18300
H640        H  0.64552262  0.12997442  0.11150961     0.14200
C641        C  0.61930745  0.98231270  0.82942782     0.29600
C642        C  0.61266518  0.99582043  0.79134993    -0.36700
C643        C  0.61991441  0.95820187  0.76371428     0.15600
C644        C  0.63336214  0.91107321  0.77312107     0.21400
C645        C  0.64048994  0.89795378  0.81086619    -0.34900
C646        C  0.63242515  0.93485179  0.83831174     0.15500
O647        O  0.61180122  0.00979019  0.86017146    -0.26900
C648        C  0.61972113  0.97894040  0.88883634     0.05300
C649        C  0.63259551  0.93195232  0.87679948    -0.31800
O650        O  0.63211469  0.87898542  0.74447444    -0.23600
C651        C  0.61733884  0.90505836  0.71595330    -0.03600
C652        C  0.61008852  0.95524744  0.72608065    -0.18000
H653        H  0.60047141  0.03193431  0.78401096     0.20000
H654        H  0.64906114  0.86016535  0.81853367     0.18400
H655        H  0.64062470  0.90004680  0.89402071     0.18300
H656        H  0.59455679  0.98295848  0.70982932     0.14200
C657        C  0.39496276  0.11708112  0.23434385     0.29600
C658        C  0.38767738  0.13194102  0.19694622    -0.36700
C659        C  0.39780706  0.09741822  0.16837660     0.15600
C660        C  0.41295364  0.05060428  0.17597523     0.21400
C661        C  0.41962541  0.03530891  0.21357921    -0.34900
C662        C  0.41028323  0.07046796  0.24229588     0.15500
O663        O  0.39509804  0.14753860  0.26401198    -0.26900
C664        C  0.41107651  0.12086635  0.29161323     0.05300
C665        C  0.41995827  0.07179773  0.27995140    -0.31800
O666        O  0.42204943  0.02541906  0.14463523    -0.23600
C667        C  0.41309734  0.05697161  0.11678163    -0.03600
C668        C  0.39799273  0.10231838  0.12993508    -0.18000
H669        H  0.37757990  0.16946809  0.19044191     0.20000
H670        H  0.43341536  0.99984411  0.21985478     0.18400
H671        H  0.43684770  0.04438948  0.29513783     0.18300
H672        H  0.38857885  0.13429124  0.11349096     0.14200
C673        C  0.39779695  0.94576215  0.84060882     0.29600
C674        C  0.38472945  0.90733599  0.81621392    -0.36700
C675        C  0.39218722  0.91411451  0.77745954     0.15600
C676        C  0.41128823  0.95580957  0.76342820     0.21400
C677        C  0.42321281  0.99540186  0.78782680    -0.34900
C678        C  0.41576620  0.98857735  0.82683666     0.15500
O679        O  0.39682166  0.94454847  0.87799772    -0.26900
C680        C  0.41389946  0.98743671  0.88866563     0.05300
C681        C  0.42607474  0.01672686  0.85806427    -0.31800
O682        O  0.42163086  0.94958919  0.72749351    -0.23600
C683        C  0.40932083  0.90307540  0.71840826    -0.03600
C684        C  0.38954007  0.88022500  0.74844654    -0.18000
H685        H  0.37185283  0.87290386  0.82697827     0.20000
H686        H  0.43947998  0.02755980  0.77746376     0.18400
H687        H  0.44139614  0.05250414  0.85879875     0.18300
H688        H  0.37923194  0.84187130  0.75115495     0.14200
C689        C  0.41206212  0.44201796  0.23750508     0.29600
C690        C  0.41983268  0.48252253  0.21288232    -0.36700
C691        C  0.41363817  0.47300290  0.17391154     0.15600
C692        C  0.40081228  0.42681529  0.16030017     0.21400
C693        C  0.39215157  0.38707601  0.18486335    -0.34900
C694        C  0.39813954  0.39666577  0.22358703     0.15500
O695        O  0.42149522  0.43948888  0.27386084    -0.26900
C696        C  0.41328603  0.39188950  0.28344693     0.05300
C697        C  0.39801487  0.36409265  0.25297785    -0.31800
O698        O  0.39977226  0.42452715  0.12291441    -0.23600
C699        C  0.41164957  0.47002577  0.11214508    -0.03600
C700        C  0.42052754  0.50200768  0.14263192    -0.18000
H701        H  0.43186315  0.51792218  0.22310530     0.20000
H702        H  0.38321904  0.35027753  0.17432200     0.18400
H703        H  0.39248622  0.32399626  0.25048571     0.18300
H704        H  0.43147823  0.54036094  0.14177882     0.14200
C705        C  0.40731935  0.57136178  0.76055437     0.29600
C706        C  0.41888390  0.53203047  0.78452820    -0.36700
C707        C  0.41255193  0.53967812  0.82368377     0.15600
C708        C  0.39593587  0.58301520  0.83805321     0.21400
C709        C  0.38321747  0.62127334  0.81410226    -0.34900
C710        C  0.38956582  0.61366423  0.77515023     0.15500
O711        O  0.41725735  0.57685559  0.72451389    -0.26900
C712        C  0.40606384  0.62349398  0.71588153     0.05300
C713        C  0.38739533  0.64720917  0.74637079    -0.31800
O714        O  0.39574776  0.58467542  0.87546874    -0.23600
C715        C  0.41199370  0.54155935  0.88546693    -0.03600
C716        C  0.42283510  0.51173466  0.85446717    -0.18000
H717        H  0.43417452  0.49943718  0.77370425     0.20000
H718        H  0.37144930  0.65614558  0.82528160     0.18400
H719        H  0.37872160  0.68605659  0.74959573     0.18300
H720        H  0.43714826  0.47558844  0.85465513     0.14200
C721        C  0.61968525  0.47390145  0.17710532     0.29600
C722        C  0.61506822  0.48872387  0.21540317    -0.36700
C723        C  0.62359503  0.45198713  0.24276846     0.15600
C724        C  0.63645302  0.40445361  0.23290752     0.21400
C725        C  0.64186408  0.39017223  0.19488370    -0.34900
C726        C  0.63237027  0.42615362  0.16774384     0.15500
O727        O  0.61056794  0.50033949  0.14670857    -0.26900
C728        C  0.61698654  0.46851577  0.11780014     0.05300
C729        C  0.63050331  0.42194523  0.12932710    -0.31800
O730        O  0.63567580  0.37303213  0.26159323    -0.23600
C731        C  0.62186970  0.40002942  0.29056575    -0.03600
C732        C  0.61484233  0.45008436  0.28068496    -0.18000
H733        H  0.60316291  0.52504313  0.22321957     0.20000
H734        H  0.64990500  0.35208111  0.18691860     0.18400
H735        H  0.63790179  0.38958322  0.11182442     0.18300
H736        H  0.59961571  0.47821498  0.29729334     0.14200
C737        C  0.61573172  0.57539393  0.76698310     0.29600
C738        C  0.60781406  0.53372438  0.79048679    -0.36700
C739        C  0.61655037  0.54016615  0.82932111     0.15600
C740        C  0.63194231  0.58454616  0.84375905     0.21400
C741        C  0.64089518  0.62529112  0.82019966    -0.34900
C742        C  0.63221767  0.61883377  0.78163102     0.15500
O743        O  0.60442697  0.58096195  0.73139758    -0.26900
C744        C  0.61378841  0.62867541  0.72311369     0.05300
C745        C  0.63199864  0.65340741  0.75346283    -0.31800
O746        O  0.63425957  0.58478004  0.88109271    -0.23600
C747        C  0.62065590  0.53974478  0.89101373    -0.03600
C748        C  0.60947250  0.50999114  0.85999022    -0.18000
H749        H  0.59370160  0.49998392  0.77973973     0.20000
H750        H  0.65172933  0.66071710  0.83153242     0.18400
H751        H  0.63999410  0.69260902  0.75675881     0.18300
H752        H  0.59634081  0.47280484  0.86020082     0.14200
loop_ 
_geom_bond_atom_site_label_1 
_geom_bond_atom_site_label_2 
_geom_bond_distance 
_geom_bond_site_symmetry_2 
_ccdc_geom_bond_type 
O1           Cu9   2.018       .  S
O1           C11   1.277       .  A
O2           Cu9   2.007   1_556  S
O2           C12   1.277       .  A
O3           Cu9   2.027       .  S
O3           C13   1.280       .  A
O4           Cu9   2.018       .  S
O4           C14   1.279       .  A
O5          Cu10   2.023       .  S
O5           C14   1.279   1_556  A
O6          Cu10   2.026       .  S
O6           C13   1.279   1_556  A
O7          Cu10   2.020       .  S
O7           C12   1.278       .  A
O8          Cu10   2.009   1_554  S
O8           C11   1.279       .  A
Cu9         Cu10   2.374   1_554  S
C11         C728   1.472       .  S
C12         C747   1.470       .  S
C13          C25   1.480       .  S
C14         C321   1.476       .  S
O15         Cu23   2.026       .  S
O15          C25   1.280   1_556  A
O16         Cu23   2.022       .  S
O16          C26   1.279       .  A
O17         Cu23   2.019       .  S
O17          C27   1.278       .  A
O18         Cu23   2.010   1_554  S
O18          C28   1.278       .  A
O19         Cu24   2.016       .  S
O19          C28   1.278       .  A
O20         Cu24   2.007   1_556  S
O20          C27   1.277       .  A
O21         Cu24   2.015       .  S
O21          C26   1.278   1_554  A
O22         Cu24   2.025       .  S
O22          C25   1.279       .  A
Cu23        Cu24   2.374   1_556  S
C26         C445   1.474       .  S
C27         C715   1.469       .  S
C28         C699   1.470       .  S
C29          C30   1.519       .  S
C29          C35   1.518       .  S
C29          C33   1.526       .  S
C29         C712   1.522       .  S
C30          H37   1.081       .  S
C30          C31   1.369       .  D
C31          C32   1.550       .  S
C31         C208   1.505       .  S
C32          C36   1.559       .  S
C32          C34   1.557       .  S
C32          H38   1.107       .  S
C33          H39   1.071       .  S
C33          C34   1.374       .  D
C34          C79   1.514       .  S
C35          H40   1.087       .  S
C35          C36   1.370       .  D
C36          C66   1.475       .  S
C41          C42   1.520       .  S
C41          C47   1.520       .  S
C41          C45   1.522       .  S
C41         C696   1.521       .  S
C42          H49   1.079       .  S
C42          C43   1.371       .  D
C43          C44   1.548       .  S
C43         C218   1.502       .  S
C44          C48   1.557       .  S
C44          C46   1.557       .  S
C44          H50   1.107       .  S
C45          H51   1.071       .  S
C45          C46   1.373       .  D
C46          C94   1.514       .  S
C47          H52   1.086       .  S
C47          C48   1.370       .  D
C48          C56   1.472       .  S
N53          N54   1.323       .  A
N53          C57   1.342       .  A
N53         Cu61   2.072       .  S
N54          C55   1.349       .  A
N54         Cu60   2.094       .  S
C55          C56   1.388       .  A
C55          H58   1.083       .  S
C56          C57   1.382       .  A
C57          H59   1.082       .  S
Cu60         N63   2.094       .  S
Cu61         N71   2.073       .  S
Cu62         N64   2.071       .  S
Cu62         N70   2.071       .  S
N63          N64   1.321       .  A
N63          C67   1.350       .  A
N64          C65   1.342       .  A
C65          C66   1.384       .  A
C65          H68   1.082       .  S
C66          C67   1.390       .  A
C67          H69   1.082       .  S
N70          N71   1.321       .  A
N70          C74   1.345       .  A
N71          C72   1.346       .  A
C72          C73   1.384       .  A
C72          H75   1.082       .  S
C73         C259   1.468       .  S
C73          C74   1.382       .  A
C74          H76   1.082       .  S
C77          C78   1.526       .  S
C77          C83   1.520       .  S
C77          C81   1.517       .  S
C77         C683   1.523       .  S
C78          H85   1.069       .  S
C78          C79   1.375       .  D
C79          C80   1.557       .  S
C80          C84   1.556       .  S
C80          C82   1.551       .  S
C80          H86   1.107       .  S
C81          H87   1.080       .  S
C81          C82   1.369       .  D
C82         C155   1.504       .  S
C83          H88   1.086       .  S
C83          C84   1.369       .  D
C84         C114   1.475       .  S
C89          C90   1.516       .  S
C89          C95   1.520       .  S
C89          C93   1.518       .  S
C89         C664   1.515       .  S
C90          H97   1.086       .  S
C90          C91   1.370       .  D
C91          C92   1.559       .  S
C91         C104   1.473       .  S
C92          C96   1.552       .  S
C92          C94   1.559       .  S
C92          H98   1.107       .  S
C93          H99   1.076       .  S
C93          C94   1.373       .  D
C95         H100   1.077       .  S
C95          C96   1.371       .  D
C96         C167   1.505       .  S
N101        N102   1.322       .  A
N101        C105   1.343       .  A
N101       Cu109   2.077       .  S
N102        C103   1.348       .  A
N102       Cu108   2.092       .  S
C103        C104   1.389       .  A
C103        H106   1.081       .  S
C104        C105   1.384       .  A
C105        H107   1.082       .  S
Cu108       N111   2.091   1_545  S
Cu109       N119   2.078       .  S
Cu110       N112   2.073       .  S
Cu110       N118   2.073       .  S
N111        N112   1.321       .  A
N111        C115   1.349       .  A
N112        C113   1.343       .  A
C113        C114   1.384       .  A
C113        H116   1.082       .  S
C114        C115   1.389       .  A
C115        H117   1.081       .  S
N118        N119   1.322   1_565  A
N118        C122   1.345       .  A
N119        C120   1.347       .  A
C120        C121   1.385       .  A
C120        H123   1.082       .  S
C121        C383   1.471       .  S
C121        C122   1.383   1_545  A
C122        H124   1.082       .  S
O125       Cu133   2.021       .  S
O125        C135   1.279   1_565  A
O126       Cu133   2.028       .  S
O126        C136   1.281   1_565  A
O127       Cu133   2.007   1_556  S
O127        C137   1.278       .  A
O128       Cu133   2.020       .  S
O128        C138   1.277   1_565  A
O129       Cu134   2.011   1_554  S
O129        C138   1.279       .  A
O130       Cu134   2.021       .  S
O130        C137   1.278   1_545  A
O131       Cu134   2.021       .  S
O131        C136   1.278   1_556  A
O132       Cu134   2.007       .  S
O132        C135   1.277   1_556  A
Cu133      Cu134   2.374   1_564  S
C135        C369   1.471       .  S
C136        C150   1.480       .  S
C137        C648   1.473       .  S
C138        C635   1.473       .  S
O139       Cu147   2.028       .  S
O139        C149   1.280   1_556  A
O140       Cu147   2.034       .  S
O140        C150   1.281   1_556  A
O141       Cu147   2.021       .  S
O141        C151   1.278       .  A
O142       Cu147   2.011   1_554  S
O142        C152   1.278       .  A
O143       Cu148   2.017       .  S
O143        C152   1.277   1_565  A
O144       Cu148   2.010   1_556  S
O144        C151   1.278   1_565  A
O145       Cu148   2.017       .  S
O145        C150   1.278   1_565  A
O146       Cu148   2.009       .  S
O146        C149   1.277   1_565  A
Cu147      Cu148   2.374   1_546  S
C149        C493   1.474       .  S
C151        C680   1.471   1_545  S
C152        C667   1.471       .  S
C153        C154   1.517       .  S
C153        C159   1.516       .  S
C153        C157   1.523       .  S
C153        C651   1.515       .  S
C154        H161   1.080       .  S
C154        C155   1.371       .  D
C155        C156   1.551       .  S
C156        C160   1.562       .  S
C156        C158   1.558       .  S
C156        H162   1.107       .  S
C157        H163   1.076       .  S
C157        C158   1.374       .  D
C158        C206   1.515       .  S
C159        H164   1.087       .  S
C159        C160   1.370       .  D
C160        C190   1.476       .  S
C165        C166   1.519       .  S
C165        C171   1.518       .  S
C165        C169   1.523       .  S
C165        C632   1.514       .  S
C166        H173   1.077       .  S
C166        C167   1.371       .  D
C167        C168   1.552       .  S
C168        C172   1.560       .  S
C168        C170   1.559       .  S
C168        H174   1.107       .  S
C169        H175   1.076       .  S
C169        C170   1.374       .  D
C170        C215   1.513       .  S
C171        H176   1.086       .  S
C171        C172   1.368       .  D
C172        C180   1.478       .  S
N177        N178   1.322       .  A
N177        C181   1.344       .  A
N177       Cu185   2.080       .  S
N178        C179   1.350       .  A
N178       Cu184   2.099       .  S
C179        C180   1.391       .  A
C179        H182   1.081       .  S
C180        C181   1.385       .  A
C181        H183   1.082       .  S
Cu184       N187   2.099   1_545  S
Cu185       N195   2.079       .  S
Cu186       N188   2.075       .  S
Cu186       N194   2.075       .  S
N187        N188   1.322       .  A
N187        C191   1.350       .  A
N188        C189   1.343       .  A
C189        C190   1.385       .  A
C189        H192   1.082       .  S
C190        C191   1.391       .  A
C191        H193   1.081       .  S
N194        N195   1.322   1_565  A
N194        C198   1.346       .  A
N195        C196   1.347       .  A
C196        C197   1.384       .  A
C196        H199   1.082       .  S
C197        C397   1.471       .  S
C197        C198   1.383   1_545  A
C198        H200   1.082       .  S
C201        C202   1.519       .  S
C201        C207   1.517       .  S
C201        C205   1.526       .  S
C201        C744   1.523       .  S
C202        H209   1.087       .  S
C202        C203   1.368       .  D
C203        C204   1.559       .  S
C203        C238   1.477       .  S
C204        C208   1.552       .  S
C204        C206   1.557       .  S
C204        H210   1.107       .  S
C205        H211   1.068       .  S
C205        C206   1.375       .  D
C207        H212   1.081       .  S
C207        C208   1.372       .  D
C213        C214   1.525       .  S
C213        C219   1.517       .  S
C213        C217   1.519       .  S
C213        C731   1.514       .  S
C214        H221   1.076       .  S
C214        C215   1.375       .  D
C215        C216   1.555       .  S
C216        C220   1.560       .  S
C216        C218   1.551       .  S
C216        H222   1.106       .  S
C217        H223   1.079       .  S
C217        C218   1.369       .  D
C219        H224   1.086       .  S
C219        C220   1.369       .  D
C220        C228   1.476       .  S
N225        N226   1.323       .  A
N225        C229   1.344       .  A
N225       Cu233   2.079       .  S
N226        C227   1.349       .  A
N226       Cu232   2.099       .  S
C227        C228   1.390       .  A
C227        H230   1.083       .  S
C228        C229   1.385       .  A
C229        H231   1.082       .  S
Cu232       N235   2.098       .  S
Cu233       N243   2.079       .  S
Cu234       N236   2.075       .  S
Cu234       N242   2.075       .  S
N235        N236   1.322       .  A
N235        C239   1.350       .  A
N236        C237   1.343       .  A
C237        C238   1.385       .  A
C237        H240   1.082       .  S
C238        C239   1.390       .  A
C239        H241   1.082       .  S
N242        N243   1.322       .  A
N242        C246   1.345       .  A
N243        C244   1.347       .  A
C244        C245   1.385       .  A
C244        H247   1.082       .  S
C245        C273   1.472       .  S
C245        C246   1.383       .  A
C246        H248   1.082       .  S
O249       Cu257   2.009       .  S
O249        C259   1.277       .  A
O250       Cu257   2.023       .  S
O250        C260   1.279       .  A
O251       Cu257   2.015       .  S
O251        C261   1.279       .  A
O252       Cu257   2.020       .  S
O252        C262   1.278       .  A
O253       Cu258   1.998       .  S
O253        C262   1.277       .  A
O254       Cu258   2.011       .  S
O254        C261   1.277       .  A
O255       Cu258   2.023       .  S
O255        C260   1.279       .  A
O256       Cu258   2.012       .  S
O256        C259   1.278       .  A
Cu257      Cu258   2.375       .  S
C260        C274   1.478   1_455  S
C261        C600   1.470       .  S
C262        C619   1.468       .  S
O263       Cu271   2.013       .  S
O263        C273   1.278       .  A
O264       Cu271   2.022       .  S
O264        C274   1.279       .  A
O265       Cu271   2.010       .  S
O265        C275   1.276       .  A
O266       Cu271   2.005       .  S
O266        C276   1.277       .  A
O267       Cu272   2.018       .  S
O267        C276   1.278       .  A
O268       Cu272   2.002       .  S
O268        C275   1.278       .  A
O269       Cu272   2.025       .  S
O269        C274   1.279       .  A
O270       Cu272   2.017       .  S
O270        C273   1.278       .  A
Cu271      Cu272   2.375       .  S
C275        C568   1.466       .  S
C276        C587   1.469       .  S
C277        C278   1.522       .  S
C277        C283   1.516       .  S
C277        C281   1.520       .  S
C277        C584   1.520       .  S
C278        H285   1.071       .  S
C278        C279   1.376       .  D
C279        C280   1.558       .  S
C279        C330   1.515       .  S
C280        C284   1.561       .  S
C280        C282   1.547       .  S
C280        H286   1.107       .  S
C281        H287   1.078       .  S
C281        C282   1.372       .  D
C282        C403   1.504   1_655  S
C283        H288   1.087       .  S
C283        C284   1.369       .  D
C284        C304   1.475       .  S
C289        C290   1.519       .  S
C289        C295   1.520       .  S
C289        C293   1.525       .  S
C289        C571   1.510       .  S
C290        H297   1.086       .  S
C290        C291   1.368       .  D
C291        C292   1.556       .  S
C291        C314   1.474       .  S
C292        C296   1.552       .  S
C292        C294   1.555       .  S
C292        H298   1.106       .  S
C293        H299   1.081       .  S
C293        C294   1.371       .  D
C294        C342   1.509       .  S
C295        H300   1.080       .  S
C295        C296   1.369       .  D
C296        C415   1.502   1_655  S
N301        N302   1.321       .  A
N301        C305   1.343       .  A
N301       Cu309   2.079       .  S
N302        C303   1.349       .  A
N302       Cu308   2.090   1_556  S
C303        C304   1.389       .  A
C303        H306   1.083       .  S
C304        C305   1.385       .  A
C305        H307   1.082       .  S
Cu308       N311   2.091       .  S
Cu309       N319   2.080   1_556  S
Cu310       N312   2.083       .  S
Cu310       N318   2.084       .  S
N311        N312   1.323       .  A
N311        C315   1.348       .  A
N312        C313   1.344       .  A
C313        C314   1.384       .  A
C313        H316   1.082       .  S
C314        C315   1.388       .  A
C315        H317   1.082       .  S
N318        N319   1.322       .  A
N318        C322   1.349       .  A
N319        C320   1.346       .  A
C320        C321   1.384       .  A
C320        H323   1.082       .  S
C321        C322   1.387       .  A
C322        H324   1.082       .  S
C325        C326   1.518       .  S
C325        C331   1.521       .  S
C325        C329   1.521       .  S
C325        C552   1.521       .  S
C326        H333   1.078       .  S
C326        C327   1.370       .  D
C327        C328   1.553       .  S
C327        C454   1.506   1_655  S
C328        C332   1.558       .  S
C328        C330   1.558       .  S
C328        H334   1.107       .  S
C329        H335   1.071       .  S
C329        C330   1.372       .  D
C331        H336   1.086       .  S
C331        C332   1.372       .  D
C332        C362   1.475       .  S
C337        C338   1.520       .  S
C337        C343   1.518       .  S
C337        C341   1.524       .  S
C337        C539   1.517       .  S
C338        H345   1.077       .  S
C338        C339   1.372       .  D
C339        C340   1.548       .  S
C339        C468   1.506   1_655  S
C340        C344   1.560       .  S
C340        C342   1.555       .  S
C340        H346   1.106       .  S
C341        H347   1.081       .  S
C341        C342   1.375       .  D
C343        H348   1.086       .  S
C343        C344   1.368       .  D
C344        C352   1.477       .  S
N349        N350   1.321       .  A
N349        C353   1.344       .  A
N349       Cu357   2.077       .  S
N350        C351   1.349       .  A
N350       Cu356   2.096       .  S
C351        C352   1.389       .  A
C351        H354   1.083       .  S
C352        C353   1.386       .  A
C353        H355   1.082       .  S
Cu356       N359   2.096   1_544  S
Cu357       N367   2.076       .  S
Cu358       N360   2.075       .  S
Cu358       N366   2.076   1_556  S
N359        N360   1.322       .  A
N359        C363   1.350       .  A
N360        C361   1.343       .  A
C361        C362   1.383       .  A
C361        H364   1.082       .  S
C362        C363   1.389       .  A
C363        H365   1.081       .  S
N366        N367   1.322   1_565  A
N366        C370   1.348   1_554  A
N367        C368   1.344       .  A
C368        C369   1.383       .  A
C368        H371   1.082       .  S
C369        C370   1.384   1_544  A
C370        H372   1.082       .  S
O373       Cu381   2.015       .  S
O373        C383   1.278       .  A
O374       Cu381   2.022       .  S
O374        C384   1.279       .  A
O375       Cu381   2.017       .  S
O375        C385   1.278   1_545  A
O376       Cu381   2.004       .  S
O376        C386   1.277       .  A
O377       Cu382   2.013       .  S
O377        C386   1.277   1_565  A
O378       Cu382   2.006       .  S
O378        C385   1.278       .  A
O379       Cu382   2.022       .  S
O379        C384   1.279   1_565  A
O380       Cu382   2.013       .  S
O380        C383   1.278   1_565  A
Cu381      Cu382   2.375   1_545  S
C384        C398   1.478   1_455  S
C385        C523   1.469       .  S
C386        C504   1.466       .  S
O387       Cu395   2.015       .  S
O387        C397   1.278   1_565  A
O388       Cu395   2.025       .  S
O388        C398   1.279   1_565  A
O389       Cu395   2.013       .  S
O389        C399   1.278       .  A
O390       Cu395   2.025       .  S
O390        C400   1.278   1_565  A
O391       Cu396   2.009       .  S
O391        C400   1.278       .  A
O392       Cu396   2.015       .  S
O392        C399   1.278   1_545  A
O393       Cu396   2.021       .  S
O393        C398   1.279       .  A
O394       Cu396   2.013       .  S
O394        C397   1.278       .  A
Cu395      Cu396   2.374   1_565  S
C399        C555   1.471       .  S
C400        C536   1.475       .  S
C401        C402   1.515       .  S
C401        C407   1.516       .  S
C401        C405   1.524       .  S
C401        C616   1.511       .  S
C402        H409   1.077       .  S
C402        C403   1.369       .  D
C403        C404   1.555       .  S
C404        C408   1.555       .  S
C404        C406   1.555       .  S
C404        H410   1.107       .  S
C405        H411   1.077       .  S
C405        C406   1.376       .  D
C406        C451   1.511       .  S
C407        H412   1.087       .  S
C407        C408   1.368       .  D
C408        C438   1.472       .  S
C413        C414   1.524       .  S
C413        C419   1.517       .  S
C413        C417   1.523       .  S
C413        C603   1.522       .  S
C414        H421   1.080       .  S
C414        C415   1.371       .  D
C415        C416   1.546       .  S
C416        C420   1.559       .  S
C416        C418   1.556       .  S
C416        H422   1.107       .  S
C417        H423   1.075       .  S
C417        C418   1.374       .  D
C418        C466   1.516       .  S
C419        H424   1.087       .  S
C419        C420   1.369       .  D
C420        C428   1.472       .  S
N425        N426   1.322       .  A
N425        C429   1.343       .  A
N425       Cu433   2.080       .  S
N426        C427   1.348       .  A
N426       Cu432   2.086       .  S
C427        C428   1.388       .  A
C427        H430   1.082       .  S
C428        C429   1.384       .  A
C429        H431   1.082       .  S
Cu432       N435   2.085   1_554  S
Cu433       N443   2.080   1_554  S
Cu434       N436   2.076       .  S
Cu434       N442   2.077       .  S
N435        N436   1.321       .  A
N435        C439   1.348       .  A
N436        C437   1.341       .  A
C437        C438   1.385       .  A
C437        H440   1.082       .  S
C438        C439   1.387       .  A
C439        H441   1.083       .  S
N442        N443   1.322       .  A
N442        C446   1.346       .  A
N443        C444   1.348       .  A
C444        C445   1.386       .  A
C444        H447   1.082   1_556  S
C445        C446   1.384       .  A
C446        H448   1.082       .  S
C449        C450   1.525       .  S
C449        C455   1.518       .  S
C449        C453   1.522       .  S
C449        C520   1.519       .  S
C450        H457   1.073       .  S
C450        C451   1.372       .  D
C451        C452   1.557       .  S
C452        C456   1.563       .  S
C452        C454   1.547       .  S
C452        H458   1.107       .  S
C453        H459   1.078       .  S
C453        C454   1.372       .  D
C455        H460   1.087       .  S
C455        C456   1.369       .  D
C456        C486   1.480       .  S
C461        C462   1.520       .  S
C461        C467   1.516       .  S
C461        C465   1.520       .  S
C461        C507   1.518       .  S
C462        H469   1.086       .  S
C462        C463   1.370       .  D
C463        C464   1.558       .  S
C463        C476   1.475       .  S
C464        C468   1.555       .  S
C464        C466   1.561       .  S
C464        H470   1.108       .  S
C465        H471   1.073       .  S
C465        C466   1.373       .  D
C467        H472   1.075       .  S
C467        C468   1.370       .  D
N473        N474   1.323       .  A
N473        C477   1.343       .  A
N473       Cu481   2.078       .  S
N474        C475   1.350       .  A
N474       Cu480   2.098       .  S
C475        C476   1.389       .  A
C475        H478   1.083       .  S
C476        C477   1.384       .  A
C477        H479   1.082       .  S
Cu480       N483   2.099   1_544  S
Cu481       N491   2.079       .  S
Cu482       N484   2.082       .  S
Cu482       N490   2.082   1_556  S
N483        N484   1.322       .  A
N483        C487   1.351       .  A
N484        C485   1.344       .  A
C485        C486   1.386       .  A
C485        H488   1.082       .  S
C486        C487   1.391       .  A
C487        H489   1.081       .  S
N490        N491   1.322   1_565  A
N490        C494   1.346   1_554  A
N491        C492   1.348       .  A
C492        C493   1.385       .  A
C492        H495   1.082       .  S
C493        C494   1.385   1_544  A
C494        H496   1.082       .  S
C497        C502   1.381       .  A
C497        C498   1.396       .  A
C497        O503   1.314       .  A
C498        C499   1.397       .  A
C498        H509   1.083       .  S
C499        C508   1.352       .  A
C499        C500   1.378       .  A
C500        C501   1.408       .  A
C500        O506   1.321       .  A
C501        C502   1.407       .  A
C501        H510   1.083       .  S
C502        C505   1.367       .  A
O503        C504   1.327       .  A
C504        C505   1.394       .  A
C505        H511   1.082   1_545  S
O506        C507   1.335       .  A
C507        C508   1.397       .  A
C508        H512   1.081       .  S
C513        C518   1.377       .  A
C513        C514   1.409       .  A
C513        O519   1.323       .  A
C514        C515   1.408       .  A
C514        H525   1.083   1_565  S
C515        C524   1.368   1_565  A
C515        C516   1.380       .  A
C516        C517   1.397       .  A
C516        O522   1.315       .  A
C517        C518   1.398       .  A
C517        H526   1.083       .  S
C518        C521   1.353       .  A
O519        C520   1.336       .  A
C520        C521   1.397       .  A
C521        H527   1.080       .  S
O522        C523   1.328       .  A
C523        C524   1.394   1_565  A
C524        H528   1.083       .  S
C529        C534   1.380       .  A
C529        C530   1.408       .  A
C529        O535   1.324       .  A
C530        C531   1.408       .  A
C530        H541   1.083       .  S
C531        C540   1.367       .  A
C531        C532   1.380       .  A
C532        C533   1.401       .  A
C532        O538   1.316       .  A
C533        C534   1.400       .  A
C533        H542   1.083       .  S
C534        C537   1.359       .  A
O535        C536   1.334       .  A
C536        C537   1.390       .  A
C537        H543   1.083       .  S
O538        C539   1.331       .  A
C539        C540   1.397       .  A
C540        H544   1.083       .  S
C545        C550   1.377       .  A
C545        C546   1.408       .  A
C545        O551   1.323       .  A
C546        C547   1.408       .  A
C546        H557   1.083   1_565  S
C547        C556   1.366   1_565  A
C547        C548   1.380       .  A
C548        C549   1.398       .  A
C548        O554   1.317       .  A
C549        C550   1.400       .  A
C549        H558   1.084       .  S
C550        C553   1.353       .  A
O551        C552   1.336       .  A
C552        C553   1.399       .  A
C553        H559   1.080       .  S
O554        C555   1.329       .  A
C555        C556   1.394   1_565  A
C556        H560   1.083       .  S
C561        C566   1.380       .  A
C561        C562   1.407       .  A
C561        O567   1.322       .  A
C562        C563   1.407       .  A
C562        H573   1.083       .  S
C563        C572   1.367       .  A
C563        C564   1.380       .  A
C564        C565   1.397       .  A
C564        O570   1.311       .  A
C565        C566   1.395       .  A
C565        H574   1.083       .  S
C566        C569   1.355       .  A
O567        C568   1.333       .  A
C568        C569   1.386       .  A
C569        H575   1.083       .  S
O570        C571   1.328       .  A
C571        C572   1.397       .  A
C572        H576   1.083       .  S
C577        C582   1.378       .  A
C577        C578   1.408       .  A
C577        O583   1.321       .  A
C578        C579   1.406       .  A
C578        H589   1.083       .  S
C579        C588   1.367       .  A
C579        C580   1.380       .  A
C580        C581   1.399       .  A
C580        O586   1.316       .  A
C581        C582   1.400       .  A
C581        H590   1.083       .  S
C582        C585   1.355       .  A
O583        C584   1.335       .  A
C584        C585   1.398       .  A
C585        H591   1.080       .  S
O586        C587   1.329       .  A
C587        C588   1.393       .  A
C588        H592   1.082       .  S
C593        C598   1.380       .  A
C593        C594   1.399       .  A
C593        O599   1.318       .  A
C594        C595   1.401       .  A
C594        H605   1.083       .  S
C595        C604   1.355       .  A
C595        C596   1.378       .  A
C596        C597   1.407       .  A
C596        O602   1.322       .  A
C597        C598   1.406       .  A
C597        H606   1.083       .  S
C598        C601   1.365       .  A
O599        C600   1.329       .  A
C600        C601   1.393       .  A
C601        H607   1.082       .  S
O602        C603   1.335       .  A
C603        C604   1.398       .  A
C604        H608   1.081       .  S
C609        C614   1.381       .  A
C609        C610   1.398       .  A
C609        O615   1.314       .  A
C610        C611   1.397       .  A
C610        H621   1.083       .  S
C611        C620   1.355       .  A
C611        C612   1.380       .  A
C612        C613   1.407       .  A
C612        O618   1.323       .  A
C613        C614   1.407       .  A
C613        H622   1.083       .  S
C614        C617   1.365       .  A
O615        C616   1.329       .  A
C616        C617   1.396       .  A
C617        H623   1.083       .  S
O618        C619   1.332       .  A
C619        C620   1.388       .  A
C620        H624   1.083       .  S
C625        C630   1.380       .  A
C625        C626   1.399       .  A
C625        O631   1.314       .  A
C626        C627   1.398       .  A
C626        H637   1.083       .  S
C627        C636   1.357       .  A
C627        C628   1.380       .  A
C628        C629   1.409       .  A
C628        O634   1.324       .  A
C629        C630   1.409       .  A
C629        H638   1.083   1_545  S
C630        C633   1.368       .  A
O631        C632   1.330       .  A
C632        C633   1.397       .  A
C633        H639   1.083       .  S
O634        C635   1.334       .  A
C635        C636   1.388       .  A
C636        H640   1.083       .  S
C641        C646   1.380       .  A
C641        C642   1.409       .  A
C641        O647   1.324   1_565  A
C642        C643   1.409       .  A
C642        H653   1.083   1_565  S
C643        C652   1.369       .  A
C643        C644   1.380       .  A
C644        C645   1.399       .  A
C644        O650   1.313       .  A
C645        C646   1.397       .  A
C645        H654   1.083       .  S
C646        C649   1.356       .  A
O647        C648   1.334   1_545  A
C648        C649   1.388       .  A
C649        H655   1.083       .  S
O650        C651   1.330       .  A
C651        C652   1.398       .  A
C652        H656   1.083       .  S
C657        C662   1.380       .  A
C657        C658   1.401       .  A
C657        O663   1.313       .  A
C658        C659   1.398       .  A
C658        H669   1.083       .  S
C659        C668   1.359       .  A
C659        C660   1.380       .  A
C660        C661   1.407       .  A
C660        O666   1.322       .  A
C661        C662   1.406       .  A
C661        H670   1.083   1_545  S
C662        C665   1.367       .  A
O663        C664   1.331       .  A
C664        C665   1.396       .  A
C665        H671   1.083       .  S
O666        C667   1.333       .  A
C667        C668   1.389       .  A
C668        H672   1.083       .  S
C673        C678   1.380       .  A
C673        C674   1.399       .  A
C673        O679   1.316       .  A
C674        C675   1.399       .  A
C674        H685   1.083       .  S
C675        C684   1.356       .  A
C675        C676   1.377       .  A
C676        C677   1.409       .  A
C676        O682   1.322       .  A
C677        C678   1.408       .  A
C677        H686   1.083   1_565  S
C678        C681   1.369   1_565  A
O679        C680   1.328       .  A
C680        C681   1.394   1_565  A
C681        H687   1.083       .  S
O682        C683   1.337       .  A
C683        C684   1.397       .  A
C684        H688   1.079       .  S
C689        C694   1.377       .  A
C689        C690   1.408       .  A
C689        O695   1.323       .  A
C690        C691   1.408       .  A
C690        H701   1.082       .  S
C691        C700   1.367       .  A
C691        C692   1.380       .  A
C692        C693   1.398       .  A
C692        O698   1.316       .  A
C693        C694   1.399       .  A
C693        H702   1.083       .  S
C694        C697   1.352       .  A
O695        C696   1.336       .  A
C696        C697   1.398       .  A
C697        H703   1.080       .  S
O698        C699   1.328       .  A
C699        C700   1.394       .  A
C700        H704   1.082       .  S
C705        C710   1.378       .  A
C705        C706   1.408       .  A
C705        O711   1.321       .  A
C706        C707   1.407       .  A
C706        H717   1.083       .  S
C707        C716   1.367       .  A
C707        C708   1.380       .  A
C708        C709   1.399       .  A
C708        O714   1.316       .  A
C709        C710   1.400       .  A
C709        H718   1.083       .  S
C710        C713   1.355       .  A
O711        C712   1.336       .  A
C712        C713   1.398       .  A
C713        H719   1.080       .  S
O714        C715   1.329       .  A
C715        C716   1.393       .  A
C716        H720   1.082       .  S
C721        C726   1.379       .  A
C721        C722   1.408       .  A
C721        O727   1.324       .  A
C722        C723   1.409       .  A
C722        H733   1.083       .  S
C723        C732   1.368       .  A
C723        C724   1.380       .  A
C724        C725   1.399       .  A
C724        O730   1.314       .  A
C725        C726   1.397       .  A
C725        H734   1.083       .  S
C726        C729   1.356       .  A
O727        C728   1.334       .  A
C728        C729   1.388       .  A
C729        H735   1.083       .  S
O730        C731   1.330       .  A
C731        C732   1.397       .  A
C732        H736   1.083       .  S
C737        C742   1.377       .  A
C737        C738   1.409       .  A
C737        O743   1.323       .  A
C738        C739   1.408       .  A
C738        H749   1.081       .  S
C739        C748   1.368       .  A
C739        C740   1.380       .  A
C740        C741   1.399       .  A
C740        O746   1.316       .  A
C741        C742   1.399       .  A
C741        H750   1.081       .  S
C742        C745   1.355       .  A
O743        C744   1.337       .  A
C744        C745   1.397       .  A
C745        H751   1.078       .  S
O746        C747   1.328       .  A
C747        C748   1.394       .  A
C748        H752   1.082       .  S
