geometry optimzed in LAMMPS
_audit_creation_date              2020-12-01 
_audit_creation_method            'lammps2cif' 
_symmetry_space_group_name_H-M    'P1' 
_symmetry_Int_Tables_number       1 
_symmetry_cell_setting            triclinic 
loop_ 
_symmetry_equiv_pos_as_xyz 
  x,y,z 
_cell_length_a                    25.47966776 
_cell_length_b                    32.18937902732639 
_cell_length_c                    34.19334614115118 
_cell_angle_alpha                 90.0002931319269 
_cell_angle_beta                  89.99606341612898 
_cell_angle_gamma                 90.01066193752962 
loop_ 
_atom_site_label 
_atom_site_type_symbol 
_atom_site_fract_x 
_atom_site_fract_y 
_atom_site_fract_z 
_atom_site_charge 
O1          O  0.54299723  0.22070771  0.49135227    -0.73800
O2          O  0.70016034  0.22939725  0.49554657    -0.74800
O3          O  0.62104118  0.20750111  0.04930669    -0.63400
O4          O  0.62185067  0.24319384  0.43756526    -0.71800
O5          O  0.61487604  0.30838847  0.45825503    -0.71400
O6          O  0.61371029  0.27209446  0.07110628    -0.62600
O7          O  0.69447587  0.29475949  0.01600251    -0.75100
O8          O  0.53595695  0.28575485  0.01213363    -0.73900
Cu9        Cu  0.62226389  0.22303748  0.49291234     1.04600
Cu10       Cu  0.61509759  0.29266529  0.01506472     1.04300
C11         C  0.51454462  0.25193714  0.50048921     0.92400
C12         C  0.72196645  0.26313580  0.00641851     0.91500
C13         C  0.61486716  0.23302523  0.07763191     0.83700
C14         C  0.61487723  0.28169884  0.43048529     0.90000
O15         O  0.35642113  0.19239590  0.03918438    -0.73800
O16         O  0.35681707  0.22863681  0.42670686    -0.74800
O17         O  0.43525745  0.21522887  0.48544866    -0.63400
O18         O  0.27641961  0.20614238  0.48206364    -0.71800
O19         O  0.27121405  0.27171803  0.00197740    -0.71400
O20         O  0.42827898  0.28006575  0.00682670    -0.62600
O21         O  0.35067793  0.29329197  0.44867383    -0.75100
O22         O  0.34871581  0.25750946  0.06001034    -0.73900
Cu23       Cu  0.35596308  0.20817728  0.48263020     1.04600
Cu24       Cu  0.34903414  0.27781984  0.00488472     1.04300
C25         C  0.35555134  0.21898559  0.06699788     0.92400
C26         C  0.35582496  0.26769729  0.42030037     0.91500
C27         C  0.45670238  0.24891720  0.49743080     0.83700
C28         C  0.24912570  0.23793223  0.99159855     0.90000
C29         C  0.37449704  0.28551551  0.38206381     0.85600
C30         C  0.43328896  0.28892636  0.38484612    -0.54600
C31         C  0.45796365  0.31040381  0.35569726     0.08600
C32         C  0.41875851  0.32449211  0.32356393     0.19500
C33         C  0.35426622  0.32947079  0.37555812    -0.55300
C34         C  0.37881972  0.35156518  0.34658206     0.08700
C35         C  0.36547205  0.26370887  0.34350125    -0.54900
C36         C  0.38706883  0.28427198  0.31203776     0.09200
H37         H  0.45327249  0.27339836  0.40866668     0.13700
H38         H  0.43755674  0.34036430  0.29844218    -0.00500
H39         H  0.32483427  0.34193611  0.39499356     0.14000
H40         H  0.33920246  0.23728922  0.34058397     0.13800
C41         C  0.37254399  0.20508812  0.10687254     0.85600
C42         C  0.43022454  0.19484257  0.10511641    -0.54600
C43         C  0.45345894  0.18507656  0.13987975     0.08600
C44         C  0.41194577  0.17768213  0.17256200     0.19500
C45         C  0.34677827  0.16600926  0.12115602    -0.55300
C46         C  0.36978179  0.14770816  0.15348926     0.08700
C47         C  0.36624795  0.23557079  0.14028653    -0.54900
C48         C  0.38376618  0.22091723  0.17559021     0.09200
H49         H  0.45112641  0.19732529  0.07758807     0.13700
H50         H  0.42849769  0.16641638  0.20064382    -0.00500
H51         H  0.31636973  0.15286653  0.10306286     0.14000
H52         H  0.34371214  0.26407287  0.13736727     0.13800
C53         C  0.27895109  0.26571265  0.24041205     0.02300
C54         C  0.30465615  0.24347338  0.21127080    -0.13900
C55         C  0.35961649  0.23908942  0.21129964    -0.00200
C56         C  0.38877215  0.25492284  0.24310680    -0.12400
C57         C  0.36258963  0.27664153  0.27334673     0.02300
C58         C  0.30802156  0.28325722  0.27070574    -0.11800
H59         H  0.28153022  0.22952230  0.18807579     0.07900
H60         H  0.43074779  0.24985638  0.24464174     0.05400
H61         H  0.28746130  0.29865920  0.29440966     0.05200
C62         C  0.37308152  0.46326867  0.38505298     0.85600
C63         C  0.36352074  0.48596746  0.34709428    -0.54600
C64         C  0.38520636  0.46650418  0.31513824     0.08600
C65         C  0.41787055  0.42654727  0.32547900     0.19500
C66         C  0.35387394  0.41913454  0.37759141    -0.55300
C67         C  0.37863576  0.39831705  0.34772943     0.08700
C68         C  0.43192659  0.46038024  0.38774765    -0.54900
C69         C  0.45687055  0.44009652  0.35792465     0.09200
H70         H  0.33687301  0.51222329  0.34489365     0.13700
H71         H  0.43688230  0.41171599  0.29989446    -0.00500
H72         H  0.32509669  0.40567383  0.39698500     0.14000
H73         H  0.45155812  0.47526282  0.41207588     0.13800
C74         C  0.36988792  0.04280585  0.11016047     0.85600
C75         C  0.36856494  0.01158018  0.14329223    -0.54600
C76         C  0.38639132  0.02718125  0.17819671     0.08600
C77         C  0.41168829  0.07161140  0.17426882     0.19500
C78         C  0.34145599  0.08006053  0.12661823    -0.55300
C79         C  0.36722464  0.10027967  0.15668063     0.08700
C80         C  0.42676192  0.05582615  0.10641448    -0.54900
C81         C  0.45147519  0.06628864  0.14037083     0.09200
H82         H  0.34686221  0.98259023  0.14110473     0.13700
H83         H  0.42919551  0.08331704  0.20186620    -0.00500
H84         H  0.30679982  0.09115347  0.11172924     0.14000
H85         H  0.44619230  0.05444836  0.07824422     0.13800
C86         C  0.27782665  0.48796935  0.24325168     0.02300
C87         C  0.30577202  0.47035889  0.27411143    -0.13900
C88         C  0.36071318  0.47496578  0.27669150    -0.00200
C89         C  0.38828523  0.49469050  0.24607791    -0.12400
C90         C  0.36032160  0.01088217  0.21393931     0.02300
C91         C  0.30504769  0.00850985  0.21369086    -0.11800
H92         H  0.28429140  0.45598709  0.29794056     0.07900
H93         H  0.43054316  0.49801295  0.24756816     0.05400
H94         H  0.28298827  0.02237657  0.18990213     0.05200
O95         O  0.61825257  0.04457413  0.04937704    -0.73800
O96         O  0.62029993  0.00934807  0.43768757    -0.74800
O97         O  0.54032215  0.03036702  0.49178739    -0.63400
O98         O  0.69839151  0.02409193  0.49594117    -0.71800
O99         O  0.69410060  0.45856622  0.01606588    -0.71400
O100        O  0.53510677  0.46524821  0.01259245    -0.62600
O101        O  0.61490305  0.44403885  0.45831021    -0.75100
O102        O  0.61297881  0.47977928  0.07111090    -0.73900
Cu103      Cu  0.62000823  0.02927951  0.49314296     1.04600
Cu104      Cu  0.61463659  0.45951301  0.01516246     1.04300
C105        C  0.61309703  0.01883474  0.07761471     0.92400
C106        C  0.61441695  0.47074832  0.43054978     0.91500
C107        C  0.51262946  0.99880426  0.00139940     0.83700
C108        C  0.72098330  0.99059464  0.00667105     0.90000
O109        O  0.35373130  0.01965472  0.42985651    -0.73800
O110        O  0.35218239  0.05565473  0.04266694    -0.74800
O111        O  0.43195204  0.03458230  0.48816986    -0.63400
O112        O  0.27320098  0.04122985  0.48517190    -0.71800
O113        O  0.26880423  0.47550306  0.00474265    -0.71400
O114        O  0.42679540  0.46957980  0.00930625    -0.62600
O115        O  0.34624837  0.49031401  0.06314888    -0.75100
O116        O  0.34912342  0.45481920  0.45157943    -0.73900
Cu117      Cu  0.35242746  0.04018236  0.48579920     1.04600
Cu118      Cu  0.34709189  0.47037579  0.00774725     1.04300
C119        C  0.35384720  0.48057405  0.42334046     0.92400
C120        C  0.35213191  0.02888557  0.07038621     0.91500
C121        C  0.45444731  0.00111053  0.99953507     0.83700
C122        C  0.24630911  0.00918782  0.99440987     0.90000
C123        C  0.59651314  0.45660378  0.39082978     0.85600
C124        C  0.53989627  0.44303908  0.39457040    -0.54600
C125        C  0.51525553  0.43269674  0.36053628     0.08600
C126        C  0.55508010  0.42785091  0.32651422     0.19500
C127        C  0.62504712  0.41937417  0.37462003    -0.55300
C128        C  0.60033963  0.39975225  0.34369221     0.08700
C129        C  0.59755842  0.48788038  0.35758067    -0.54900
C130        C  0.57961883  0.47233287  0.32266016     0.09200
H131        H  0.52052772  0.44412364  0.42277576     0.13700
H132        H  0.53759744  0.41606693  0.29893947    -0.00500
H133        H  0.65876494  0.40793160  0.39038960     0.14000
H134        H  0.61915542  0.51691834  0.35970425     0.13800
C135        C  0.59377449  0.03628022  0.11581894     0.85600
C136        C  0.53487896  0.03887426  0.11325817    -0.54600
C137        C  0.50995369  0.05960544  0.14283354     0.08600
C138        C  0.54904001  0.07412969  0.17483168     0.19500
C139        C  0.61297846  0.08043509  0.12258110    -0.55300
C140        C  0.58804775  0.10201904  0.15173550     0.08700
C141        C  0.60353040  0.01430958  0.15409349    -0.54900
C142        C  0.58174330  0.03424851  0.18580053     0.09200
H143        H  0.51518115  0.02327577  0.08936434     0.13700
H144        H  0.53015094  0.08958289  0.20015155    -0.00500
H145        H  0.64239194  0.09324181  0.10334682     0.14000
H146        H  0.62997631  0.98795876  0.15661663     0.13800
C147        C  0.68813848  0.01063813  0.25739448     0.02300
C148        C  0.66041853  0.02941775  0.22712084    -0.13900
C149        C  0.60548210  0.02548482  0.22449811    -0.00200
C150        C  0.57765032  0.00554889  0.25493912    -0.12400
C151        C  0.60554258  0.48845970  0.28679670     0.02300
C152        C  0.66083111  0.48974115  0.28667525    -0.11800
H153        H  0.68209787  0.04418470  0.20360256     0.07900
H154        H  0.53532628  0.00277904  0.25354029     0.05400
H155        H  0.68277883  0.47523812  0.31018502     0.05200
C156        C  0.59711522  0.29559462  0.39065717     0.85600
C157        C  0.59943648  0.26413920  0.35769608    -0.54600
C158        C  0.58222547  0.27918000  0.32243264     0.08600
C159        C  0.55684286  0.32350209  0.32559107     0.19500
C160        C  0.62541294  0.33299793  0.37464597    -0.55300
C161        C  0.60106181  0.35227257  0.34340494     0.08700
C162        C  0.54015282  0.30857011  0.39355193    -0.54900
C163        C  0.51618213  0.31849538  0.35906173     0.09200
H164        H  0.62093267  0.23511607  0.36043827     0.13700
H165        H  0.53998078  0.33492501  0.29766830    -0.00500
H166        H  0.65833167  0.34495705  0.39099255     0.14000
H167        H  0.52001655  0.30727281  0.42146623     0.13800
C168        C  0.59566377  0.21522010  0.11596210     0.85600
C169        C  0.60815873  0.23557163  0.15463555    -0.54600
C170        C  0.58569818  0.21579185  0.18620239     0.08600
C171        C  0.55069380  0.17725310  0.17501619     0.19500
C172        C  0.61216921  0.17007883  0.12129173    -0.55300
C173        C  0.58780612  0.14884928  0.15101760     0.08700
C174        C  0.53660481  0.21496213  0.11469591    -0.54900
C175        C  0.51155653  0.19344603  0.14377297     0.09200
H176        H  0.63586416  0.26107895  0.15736126     0.13700
H177        H  0.53168931  0.16172462  0.20024960    -0.00500
H178        H  0.63962198  0.15656625  0.10094932     0.14000
H179        H  0.51683015  0.23184744  0.09157910     0.13800
C180        C  0.69082344  0.23662455  0.25954416     0.02300
C181        C  0.66357313  0.25881293  0.28799220    -0.13900
C182        C  0.60840691  0.26197823  0.28706101    -0.00200
C183        C  0.58078267  0.24539781  0.25485823    -0.12400
C184        C  0.60859966  0.22409361  0.22522412     0.02300
C185        C  0.66318012  0.21838531  0.22890313    -0.11800
H186        H  0.68551784  0.27323704  0.31155487     0.07900
H187        H  0.53870714  0.24956318  0.25257525     0.05400
H188        H  0.68486827  0.20299737  0.20574996     0.05200
O189        O  0.11262284  0.27293658  0.17842412    -0.73800
O190        O  0.11496157  0.30865535  0.29133245    -0.74800
O191        O  0.19379111  0.29579770  0.23302805    -0.63400
O192        O  0.03527633  0.28598604  0.23782001    -0.71800
O193        O  0.04271916  0.22092902  0.25846239    -0.71400
O194        O  0.19988616  0.23037996  0.25326769    -0.62600
O195        O  0.12248869  0.24341830  0.31181479    -0.75100
O196        O  0.12049490  0.20833687  0.20011388    -0.73900
Cu197      Cu  0.11442378  0.29326490  0.23447554     1.04600
Cu198      Cu  0.12213963  0.22360227  0.25642929     1.04300
C199        C  0.11417161  0.23389404  0.17185385     0.92400
C200        C  0.11565276  0.28189317  0.31904040     0.91500
C201        C  0.22148004  0.26421802  0.24242970     0.83700
C202        C  0.01403663  0.25208317  0.24941920     0.90000
O203        O  0.85673364  0.22904932  0.32311784    -0.73800
O204        O  0.85546139  0.19311660  0.21027854    -0.74800
O205        O  0.93467037  0.21519858  0.26418048    -0.63400
O206        O  0.77582821  0.20650349  0.26810048    -0.71800
O207        O  0.77034056  0.27200112  0.24801604    -0.71400
O208        O  0.92763236  0.28018503  0.24325409    -0.62600
O209        O  0.84796621  0.25837447  0.18982743    -0.75100
O210        O  0.84982009  0.29366158  0.30118061    -0.73900
Cu211      Cu  0.85535556  0.20850420  0.26713366     1.04600
Cu212      Cu  0.84823470  0.27818419  0.24507221     1.04300
C213        C  0.85563241  0.26814620  0.32949600     0.92400
C214        C  0.85486384  0.21993927  0.18260124     0.91500
C215        C  0.95612078  0.24897266  0.25245437     0.83700
C216        C  0.74839980  0.23821840  0.25860850     0.90000
C217        C  0.87489872  0.28616166  0.36749181     0.85600
C218        C  0.86597296  0.26432627  0.40600196    -0.54600
C219        C  0.88775525  0.28472445  0.43746634     0.08600
C220        C  0.91964982  0.32480458  0.42601891     0.19500
C221        C  0.85516804  0.33029272  0.37405812    -0.55300
C222        C  0.87965672  0.35210970  0.40329867     0.08700
C223        C  0.93363741  0.28934065  0.36452306    -0.54900
C224        C  0.95859749  0.31056185  0.39372158     0.09200
H225        H  0.83958332  0.23797531  0.40889789     0.12900
H226        H  0.93876154  0.34050592  0.45110570    -0.00500
H227        H  0.82590274  0.34297170  0.35462169     0.14000
H228        H  0.95332980  0.27371495  0.34061392     0.13800
C229        C  0.87210233  0.20637361  0.14263003     0.85600
C230        C  0.86708090  0.23718313  0.10927887    -0.54600
C231        C  0.88475860  0.22230956  0.07405506     0.08600
C232        C  0.91177513  0.17866512  0.07719320     0.19500
C233        C  0.84528912  0.16797909  0.12777886    -0.55300
C234        C  0.86872278  0.14925477  0.09589551     0.08700
C235        C  0.92965291  0.19523508  0.14470501    -0.54900
C236        C  0.95308057  0.18533486  0.11001469     0.09200
H237        H  0.84477367  0.26581839  0.11201270     0.13700
H238        H  0.92833951  0.16726043  0.04916324    -0.00500
H239        H  0.81377243  0.15542356  0.14519145     0.14000
H240        H  0.95045763  0.19755185  0.17229343     0.13800
C241        C  0.77942804  0.26463433  0.00835081     0.02300
C242        C  0.80538564  0.24296788  0.03775210    -0.13900
C243        C  0.86046633  0.23990376  0.03822087    -0.00200
C244        C  0.88959365  0.25622603  0.00663271    -0.12400
C245        C  0.86312792  0.27711177  0.47605735     0.02300
C246        C  0.80834961  0.28269072  0.47827659    -0.11800
H247        H  0.78243497  0.22871284  0.06087859     0.07900
H248        H  0.93174982  0.25204705  0.00547014     0.05400
H249        H  0.78764209  0.29775398  0.45444981     0.05200
C250        C  0.87199797  0.46386828  0.36642054     0.85600
C251        C  0.93075296  0.46040761  0.36307000    -0.54600
C252        C  0.95624565  0.44038296  0.39281674     0.08600
C253        C  0.91770396  0.42709354  0.42561105     0.19500
C254        C  0.85226494  0.41999099  0.37439895    -0.55300
C255        C  0.87787502  0.39892288  0.40372277     0.08700
C256        C  0.86372781  0.48691086  0.40436644    -0.54900
C257        C  0.88577297  0.46740661  0.43618393     0.09200
H258        H  0.94988285  0.47519758  0.33849593     0.13700
H259        H  0.93697925  0.41224775  0.45108339    -0.00500
H260        H  0.82282629  0.40671993  0.35543869     0.14000
H261        H  0.83744413  0.01337476  0.40675159     0.13800
C262        C  0.87058089  0.04482530  0.14116629     0.85600
C263        C  0.92735541  0.05829256  0.14469403    -0.54600
C264        C  0.95186788  0.06839204  0.11050065     0.08600
C265        C  0.91189019  0.07333784  0.07668074     0.19500
C266        C  0.84190346  0.08188632  0.12463693    -0.55300
C267        C  0.86716075  0.10178610  0.09409513     0.08700
C268        C  0.86931936  0.01344486  0.10804685    -0.54900
C269        C  0.88697838  0.02889221  0.07301996     0.09200
H270        H  0.94704475  0.05702908  0.17277846     0.13700
H271        H  0.92920495  0.08500756  0.04899862    -0.00500
H272        H  0.80754034  0.09305330  0.13982990     0.14000
H273        H  0.84777379  0.98439906  0.11035299     0.13800
C274        C  0.77866189  0.98938941  0.50789463     0.02300
C275        C  0.80673154  0.47129874  0.47739876    -0.13900
C276        C  0.86159923  0.47603070  0.47473951    -0.00200
C277        C  0.88910374  0.99611378  0.50521393    -0.12400
C278        C  0.86102438  0.01246986  0.03727316     0.02300
C279        C  0.80572617  0.01029941  0.03734150    -0.11800
H280        H  0.78533536  0.45650149  0.45376002     0.07900
H281        H  0.93135437  0.99949482  0.50372233     0.05400
H282        H  0.78358301  0.02438438  0.06097234     0.05200
O283        O  0.11162185  0.48043852  0.17966508    -0.73800
O284        O  0.11372078  0.44526694  0.29239598    -0.74800
O285        O  0.03403691  0.46711215  0.23862418    -0.63400
O286        O  0.19266015  0.45828209  0.23454444    -0.71800
O287        O  0.19823250  0.02362670  0.25503427    -0.71400
O288        O  0.04017780  0.03236527  0.25892358    -0.62600
O289        O  0.11975002  0.01055362  0.31306372    -0.75100
O290        O  0.11882758  0.04519617  0.20116527    -0.73900
Cu291      Cu  0.11328475  0.46040086  0.23565025     1.04600
Cu292      Cu  0.11998099  0.03015433  0.25755786     1.04300
C293        C  0.11282408  0.01945391  0.17301586     0.92400
C294        C  0.11368910  0.47196865  0.32015007     0.91500
C295        C  0.01205504  0.00086677  0.24979808     0.83700
C296        C  0.22017121  0.98983567  0.24433688     0.90000
O297        O  0.76858015  0.47614949  0.24579306    -0.73800
O298        O  0.92645894  0.47143455  0.24267625    -0.74800
O299        O  0.84795408  0.45560236  0.29978665    -0.63400
O300        O  0.84711621  0.49206816  0.18814583    -0.71800
O301        O  0.85182013  0.05737342  0.20881797    -0.71400
O302        O  0.85262059  0.02036429  0.32166304    -0.62600
O303        O  0.93124132  0.03656050  0.26352391    -0.75100
O304        O  0.77222667  0.04164043  0.26613614    -0.73900
Cu305      Cu  0.84690996  0.47165504  0.24354025     1.04600
Cu306      Cu  0.85155858  0.04138472  0.26574092     1.04300
C307        C  0.74570579  0.00952712  0.25648850     0.92400
C308        C  0.95391748  0.00315962  0.25215069     0.91500
C309        C  0.85255293  0.48125980  0.32813519     0.83700
C310        C  0.85270775  0.03070646  0.18100233     0.90000
C311        C  0.09816671  0.29560896  0.35894579     0.85600
C312        C  0.04098528  0.30782899  0.35611904    -0.54600
C313        C  0.01695677  0.31783966  0.39052969     0.08600
C314        C  0.05752204  0.32334021  0.42397250     0.19500
C315        C  0.12579131  0.33341730  0.37478300    -0.55300
C316        C  0.10117718  0.35249474  0.40604853     0.08700
C317        C  0.10125736  0.26433676  0.39199118    -0.54900
C318        C  0.08372872  0.27931521  0.42719546     0.09200
H319        H  0.02090000  0.30635237  0.32819389     0.13700
H320        H  0.04053012  0.33463456  0.45189687    -0.00500
H321        H  0.15855227  0.34561151  0.35841126     0.14000
H322        H  0.12320679  0.23551967  0.38930245     0.13800
C323        C  0.09519539  0.21600874  0.13359482     0.85600
C324        C  0.03614646  0.21542400  0.13499339    -0.54600
C325        C  0.01121016  0.19373974  0.10604310     0.08600
C326        C  0.05048611  0.17759134  0.07478527     0.19500
C327        C  0.11222510  0.17097710  0.12836993    -0.55300
C328        C  0.08787041  0.14948000  0.09887447     0.08700
C329        C  0.10749937  0.23629847  0.09486502    -0.54900
C330        C  0.08532649  0.21619954  0.06337849     0.09200
H331        H  0.01624610  0.23220029  0.15812849     0.13700
H332        H  0.03155542  0.16189342  0.04962051    -0.00500
H333        H  0.14008251  0.15771787  0.14856053     0.14000
H334        H  0.13513501  0.26184285  0.09204410     0.13800
C335        C  0.19152535  0.23657607  0.99062631     0.02300
C336        C  0.16464894  0.25903222  0.46217375    -0.13900
C337        C  0.10949469  0.26216696  0.46272616    -0.00200
C338        C  0.08145379  0.24549015  0.99465906    -0.12400
C339        C  0.10881865  0.22409462  0.02444171     0.02300
C340        C  0.16347127  0.21826266  0.02107652    -0.11800
H341        H  0.18686769  0.27356526  0.43880832     0.07900
H342        H  0.03935947  0.24969575  0.99664852     0.05400
H343        H  0.18484461  0.20277641  0.04432699     0.05200
C344        C  0.09608442  0.45767788  0.35979117     0.85600
C345        C  0.09816963  0.48827232  0.39350105    -0.54600
C346        C  0.08030708  0.47226080  0.42825843     0.08600
C347        C  0.05505650  0.42802301  0.42388298     0.19500
C348        C  0.12417113  0.41985954  0.37503148    -0.55300
C349        C  0.09983905  0.39994363  0.40590157     0.08700
C350        C  0.03926263  0.44483981  0.35623953    -0.54900
C351        C  0.01484670  0.43385223  0.39015824     0.09200
H352        H  0.12008244  0.01718618  0.39166164     0.13700
H353        H  0.03778335  0.41587812  0.45139269    -0.00500
H354        H  0.15742783  0.40847265  0.35870721     0.14000
H355        H  0.01986855  0.44638381  0.32807880     0.13800
C356        C  0.09371425  0.03700109  0.13476805     0.85600
C357        C  0.10394919  0.01511538  0.09651585    -0.54600
C358        C  0.08227261  0.03495808  0.06472969     0.08600
C359        C  0.04932881  0.07475916  0.07554928     0.19500
C360        C  0.11272887  0.08127355  0.12811569    -0.55300
C361        C  0.08810815  0.10268811  0.09866989     0.08700
C362        C  0.03477682  0.03945323  0.13706552    -0.54900
C363        C  0.01008261  0.06041354  0.10754557     0.09200
H364        H  0.13051976  0.98883158  0.09409579     0.13700
H365        H  0.03056261  0.09015072  0.05015318    -0.00500
H366        H  0.14170274  0.09427540  0.14759698     0.14000
H367        H  0.01483622  0.02403897  0.16097926     0.13800
C368        C  0.18874843  0.01065455  0.99338344     0.02300
C369        C  0.16099056  0.03004714  0.02333738    -0.13900
C370        C  0.10604734  0.02603135  0.02605804    -0.00200
C371        C  0.07826294  0.00563637  0.99587056    -0.12400
C372        C  0.10616970  0.48807054  0.46426066     0.02300
C373        C  0.16144600  0.48924673  0.46443715    -0.11800
H374        H  0.18263879  0.04517355  0.04666538     0.07900
H375        H  0.03593170  0.00293902  0.99725358     0.05400
H376        H  0.18337871  0.47438570  0.44111245     0.05200
O377        O  0.54300012  0.22070638  0.99135185    -0.73800
O378        O  0.70016318  0.22939447  0.99554417    -0.74800
O379        O  0.62103644  0.20750338  0.54930803    -0.63400
O380        O  0.62185232  0.24319256  0.93756430    -0.71800
O381        O  0.61488176  0.30838747  0.95825407    -0.71400
O382        O  0.61370520  0.27209650  0.57110812    -0.62600
O383        O  0.69447011  0.29476254  0.51600369    -0.75100
O384        O  0.53595194  0.28575570  0.51213506    -0.73900
Cu385      Cu  0.62226693  0.22303557  0.99291104     1.04600
Cu386      Cu  0.61509212  0.29266707  0.51506605     1.04300
C387        C  0.51454845  0.25193662  0.00048801     0.92400
C388        C  0.72196212  0.26313947  0.50642029     0.91500
C389        C  0.61486223  0.23302717  0.57763350     0.83700
C390        C  0.61488007  0.28169776  0.93048448     0.90000
O391        O  0.35641744  0.19239269  0.53918591    -0.73800
O392        O  0.35681741  0.22863927  0.92670513    -0.74800
O393        O  0.43525995  0.21523037  0.98544618    -0.63400
O394        O  0.27642120  0.20614614  0.98206353    -0.71800
O395        O  0.27121079  0.27171382  0.50197871    -0.71400
O396        O  0.42827463  0.28006424  0.50682899    -0.62600
O397        O  0.35068099  0.29329473  0.94867192    -0.75100
O398        O  0.34871180  0.25750608  0.56001231    -0.73900
Cu399      Cu  0.35596506  0.20818000  0.98262865     1.04600
Cu400      Cu  0.34903036  0.27781691  0.50488666     1.04300
C401        C  0.35554753  0.21898212  0.56699960     0.92400
C402        C  0.35582633  0.26769978  0.92029855     0.91500
C403        C  0.45670594  0.24891810  0.99742877     0.83700
C404        C  0.24912344  0.23792803  0.49159874     0.90000
C405        C  0.37449916  0.28551758  0.88206221     0.85600
C406        C  0.43329043  0.28893332  0.88484807    -0.54600
C407        C  0.45796594  0.31040914  0.85569875     0.08600
C408        C  0.41876211  0.32449324  0.82356275     0.19500
C409        C  0.35426340  0.32947081  0.87555272    -0.55300
C410        C  0.37881928  0.35156554  0.84657780     0.08700
C411        C  0.36548079  0.26370760  0.84350052    -0.54900
C412        C  0.38707660  0.28427082  0.81203682     0.09200
H413        H  0.45327308  0.27340906  0.90867111     0.13700
H414        H  0.43756104  0.34036479  0.79844093    -0.00500
H415        H  0.32482771  0.34193505  0.89498553     0.14000
H416        H  0.33921314  0.23728674  0.84058349     0.13800
C417        C  0.37254094  0.20508426  0.60687400     0.85600
C418        C  0.43022094  0.19483631  0.60511614    -0.54600
C419        C  0.45345638  0.18507037  0.63987908     0.08600
C420        C  0.41194499  0.17767807  0.67256250     0.19500
C421        C  0.34677338  0.16600671  0.62115952    -0.55300
C422        C  0.36977937  0.14770468  0.65349153     0.08700
C423        C  0.36624890  0.23556792  0.64028754    -0.54900
C424        C  0.38376798  0.22091425  0.67559087     0.09200
H425        H  0.45112216  0.19731860  0.57758751     0.13700
H426        H  0.42849778  0.16641233  0.70064409    -0.00500
H427        H  0.31636166  0.15286526  0.60306838     0.14000
H428        H  0.34371421  0.26407059  0.63736864     0.13800
C429        C  0.27895353  0.26570814  0.74041437     0.02300
C430        C  0.30465858  0.24346902  0.71127293    -0.13900
C431        C  0.35961924  0.23908678  0.71130036    -0.00200
C432        C  0.38877613  0.25492232  0.74310585    -0.12400
C433        C  0.36259438  0.27664012  0.77334657     0.02300
C434        C  0.30802524  0.28325369  0.77070735    -0.11800
H435        H  0.28153245  0.22951696  0.68807863     0.07900
H436        H  0.43075218  0.24985753  0.74463922     0.05400
H437        H  0.28746562  0.29865521  0.79441175     0.05200
C438        C  0.37308541  0.46326912  0.88505173     0.85600
C439        C  0.36351939  0.48596629  0.84709289    -0.54600
C440        C  0.38520429  0.46650351  0.81513627     0.08600
C441        C  0.41787174  0.42654786  0.82547632     0.19500
C442        C  0.35388040  0.41913400  0.87759213    -0.55300
C443        C  0.37863939  0.39831722  0.84772855     0.08700
C444        C  0.43193077  0.46038383  0.88774328    -0.54900
C445        C  0.45687353  0.44009873  0.85792060     0.09200
H446        H  0.33687010  0.51222138  0.84489291     0.13700
H447        H  0.43688236  0.41171644  0.79989142    -0.00500
H448        H  0.32510638  0.40567246  0.89698779     0.14000
H449        H  0.45156345  0.47526870  0.91206988     0.13800
C450        C  0.36989251  0.04280255  0.61015932     0.85600
C451        C  0.36856783  0.01157660  0.64329065    -0.54600
C452        C  0.38639331  0.02717691  0.67819557     0.08600
C453        C  0.41169068  0.07160725  0.67426856     0.19500
C454        C  0.34146044  0.08005718  0.62661622    -0.55300
C455        C  0.36722694  0.10027567  0.65667983     0.08700
C456        C  0.42676660  0.05582245  0.60641432    -0.54900
C457        C  0.45147895  0.06628462  0.64037098     0.09200
H458        H  0.34686517  0.98258662  0.64110222     0.13700
H459        H  0.42919700  0.08331248  0.70186641    -0.00500
H460        H  0.30680544  0.09115003  0.61172585     0.14000
H461        H  0.44619755  0.05444512  0.57824427     0.13800
C462        C  0.27782388  0.48797362  0.74325221     0.02300
C463        C  0.30577008  0.47035834  0.77410920    -0.13900
C464        C  0.36071107  0.47496623  0.77668967    -0.00200
C465        C  0.38828220  0.49469469  0.74607773    -0.12400
C466        C  0.36032342  0.01087649  0.71393777     0.02300
C467        C  0.30504946  0.00850275  0.71368864    -0.11800
H468        H  0.28429014  0.45598295  0.79793680     0.07900
H469        H  0.43054019  0.49801690  0.74756766     0.05400
H470        H  0.28299009  0.02236704  0.68989870     0.05200
O471        O  0.61826002  0.04457436  0.54937581    -0.73800
O472        O  0.62029660  0.00935046  0.93768845    -0.74800
O473        O  0.54031601  0.03036763  0.99178742    -0.63400
O474        O  0.69838632  0.02409369  0.99594448    -0.71800
O475        O  0.69409512  0.45856714  0.51606894    -0.71400
O476        O  0.53510126  0.46524830  0.51259032    -0.62600
O477        O  0.61490492  0.44403697  0.95831044    -0.75100
O478        O  0.61297055  0.47977837  0.57111143    -0.73900
Cu479      Cu  0.62000257  0.02928070  0.99314430     1.04600
Cu480      Cu  0.61463112  0.45951351  0.51516267     1.04300
C481        C  0.61310446  0.01883535  0.57761383     0.92400
C482        C  0.61441865  0.47074588  0.93054953     0.91500
C483        C  0.51263572  0.99880400  0.50140043     0.83700
C484        C  0.72098892  0.99059286  0.50666693     0.90000
O485        O  0.35373026  0.01965624  0.92985713    -0.73800
O486        O  0.35219033  0.05565205  0.54266595    -0.74800
O487        O  0.43194654  0.03458446  0.98817280    -0.63400
O488        O  0.27319753  0.04123296  0.98516868    -0.71800
O489        O  0.26879867  0.47550776  0.50474466    -0.71400
O490        O  0.42678969  0.46958015  0.50930289    -0.62600
O491        O  0.34624648  0.49031710  0.56314914    -0.75100
O492        O  0.34913427  0.45481797  0.95157947    -0.73900
Cu493      Cu  0.35242300  0.04018470  0.98579962     1.04600
Cu494      Cu  0.34708584  0.47037818  0.50774712     1.04300
C495        C  0.35385303  0.48057325  0.92334033     0.92400
C496        C  0.35213716  0.02888293  0.57038517     0.91500
C497        C  0.45445358  0.00110996  0.49953574     0.83700
C498        C  0.24631379  0.00918336  0.49441133     0.90000
C499        C  0.59651553  0.45660069  0.89082964     0.85600
C500        C  0.53989782  0.44303802  0.89456869    -0.54600
C501        C  0.51525811  0.43269589  0.86053392     0.08600
C502        C  0.55508445  0.42784758  0.82651326     0.19500
C503        C  0.62504783  0.41936943  0.87462242    -0.55300
C504        C  0.60034254  0.39974850  0.84369316     0.08700
C505        C  0.59756489  0.48787611  0.85757958    -0.54900
C506        C  0.57962490  0.47232849  0.82265924     0.09200
H507        H  0.52052795  0.44412390  0.92277359     0.13700
H508        H  0.53760290  0.41606332  0.79893825    -0.00500
H509        H  0.65876230  0.40792515  0.89039507     0.14000
H510        H  0.61916246  0.51691373  0.85970300     0.13800
C511        C  0.59378034  0.03628077  0.61581792     0.85600
C512        C  0.53488439  0.03887282  0.61325747    -0.54600
C513        C  0.50995800  0.05960296  0.64283326     0.08600
C514        C  0.54904374  0.07412814  0.67483120     0.19500
C515        C  0.61298164  0.08043639  0.62258017    -0.55300
C516        C  0.58804998  0.10201898  0.65173511     0.08700
C517        C  0.60353739  0.01431032  0.65409232    -0.54900
C518        C  0.58174882  0.03424787  0.68579950     0.09200
H519        H  0.51518740  0.02327374  0.58936370     0.13700
H520        H  0.53015412  0.08958032  0.70015135    -0.00500
H521        H  0.64239326  0.09324464  0.60334545     0.14000
H522        H  0.62998418  0.98795976  0.65661526     0.13800
C523        C  0.68813950  0.01063543  0.75739645     0.02300
C524        C  0.66042176  0.02941346  0.72712108    -0.13900
C525        C  0.60548531  0.02548303  0.72449756    -0.00200
C526        C  0.57765070  0.00555047  0.75493907    -0.12400
C527        C  0.60554495  0.48845630  0.78679513     0.02300
C528        C  0.66083296  0.48973911  0.78667201    -0.11800
H529        H  0.68210288  0.04417837  0.70360262     0.07900
H530        H  0.53532652  0.00278273  0.75353941     0.05400
H531        H  0.68278254  0.47523493  0.81018019     0.05200
C532        C  0.59711681  0.29559382  0.89065681     0.85600
C533        C  0.59943060  0.26413621  0.85769733    -0.54600
C534        C  0.58222031  0.27917684  0.82243380     0.08600
C535        C  0.55684407  0.32350118  0.82559119     0.19500
C536        C  0.62541969  0.33299326  0.87464200    -0.55300
C537        C  0.60106730  0.35226907  0.84340221     0.08700
C538        C  0.54015603  0.30857499  0.89355322    -0.54900
C539        C  0.51618461  0.31850014  0.85906310     0.09200
H540        H  0.62092372  0.23511147  0.86043987     0.13700
H541        H  0.53998203  0.33492408  0.79766841    -0.00500
H542        H  0.65834299  0.34495017  0.89098527     0.14000
H543        H  0.52002094  0.30728021  0.92146804     0.13800
C544        C  0.59565897  0.21522100  0.61596345     0.85600
C545        C  0.60815039  0.23557265  0.65463777    -0.54600
C546        C  0.58569063  0.21579063  0.68620378     0.08600
C547        C  0.55069003  0.17725055  0.67501598     0.19500
C548        C  0.61216824  0.17008048  0.62129301    -0.55300
C549        C  0.58780553  0.14884914  0.65101791     0.08700
C550        C  0.53660015  0.21495951  0.61469569    -0.54900
C551        C  0.51155295  0.19344195  0.64377217     0.09200
H552        H  0.63585417  0.26108079  0.65736476     0.13700
H553        H  0.53168561  0.16172077  0.70024873    -0.00500
H554        H  0.63962337  0.15656959  0.60095125     0.14000
H555        H  0.51682468  0.23184343  0.59157831     0.13800
C556        C  0.69081756  0.23661906  0.75954537     0.02300
C557        C  0.66356789  0.25880779  0.78799363    -0.13900
C558        C  0.60840166  0.26197383  0.78706281    -0.00200
C559        C  0.58077682  0.24539434  0.75486009    -0.12400
C560        C  0.60859275  0.22408988  0.72522579     0.02300
C561        C  0.66317305  0.21837985  0.72890469    -0.11800
H562        H  0.68551317  0.27323191  0.81155617     0.07900
H563        H  0.53870137  0.24956107  0.75257710     0.05400
H564        H  0.68486019  0.20299158  0.70575132     0.05200
O565        O  0.11261603  0.27293766  0.67842680    -0.73800
O566        O  0.11496736  0.30865019  0.79133528    -0.74800
O567        O  0.19379239  0.29579303  0.73302850    -0.63400
O568        O  0.03527477  0.28598371  0.73782690    -0.71800
O569        O  0.04271731  0.22092422  0.75846208    -0.71400
O570        O  0.19988677  0.23037618  0.75327041    -0.62600
O571        O  0.12248685  0.24341229  0.81181699    -0.75100
O572        O  0.12049445  0.20833739  0.70011357    -0.73900
Cu573      Cu  0.11442355  0.29326202  0.73447896     1.04600
Cu574      Cu  0.12213883  0.22359856  0.75643031     1.04300
C575        C  0.11416602  0.23389560  0.67185482     0.92400
C576        C  0.11565551  0.28188775  0.81904280     0.91500
C577        C  0.22148149  0.26421376  0.74243173     0.83700
C578        C  0.01403448  0.25207929  0.74942196     0.90000
O579        O  0.85673155  0.22904255  0.82311780    -0.73800
O580        O  0.85545515  0.19311457  0.71027529    -0.74800
O581        O  0.93466681  0.21519273  0.76417834    -0.63400
O582        O  0.77582322  0.20649799  0.76809979    -0.71800
O583        O  0.77033499  0.27199609  0.74801712    -0.71400
O584        O  0.92762881  0.28018094  0.74325723    -0.62600
O585        O  0.84796240  0.25837414  0.68982856    -0.75100
O586        O  0.84981416  0.29365529  0.80118280    -0.73900
Cu587      Cu  0.85535119  0.20849896  0.76713197     1.04600
Cu588      Cu  0.84822993  0.27817995  0.74507419     1.04300
C589        C  0.85562926  0.26813940  0.82949727     0.92400
C590        C  0.85485913  0.21993949  0.68259978     0.91500
C591        C  0.95611765  0.24896800  0.75245553     0.83700
C592        C  0.74839430  0.23821300  0.75860885     0.90000
C593        C  0.87489762  0.28615547  0.86749267     0.85600
C594        C  0.86597787  0.26431841  0.90600281    -0.54600
C595        C  0.88776087  0.28471699  0.93746667     0.08600
C596        C  0.91965086  0.32479934  0.92601843     0.19500
C597        C  0.85516384  0.33028568  0.87406116    -0.55300
C598        C  0.87965427  0.35210358  0.90330048     0.08700
C599        C  0.93363585  0.28933832  0.86452075    -0.54900
C600        C  0.95859691  0.31055931  0.89371909     0.09200
H601        H  0.83959017  0.23796637  0.90889951     0.12900
H602        H  0.93876353  0.34050091  0.95110468    -0.00500
H603        H  0.82589620  0.34296407  0.85462624     0.14000
H604        H  0.95332691  0.27371454  0.84061000     0.13800
C605        C  0.87209796  0.20637728  0.64262763     0.85600
C606        C  0.86708303  0.23719190  0.60928007    -0.54600
C607        C  0.88475968  0.22232084  0.57405511     0.08600
C608        C  0.91177074  0.17867359  0.57718954     0.19500
C609        C  0.84527915  0.16798745  0.62777038    -0.55300
C610        C  0.86871521  0.14926311  0.59588811     0.08700
C611        C  0.92964758  0.19523382  0.64470316    -0.54900
C612        C  0.95307552  0.18533661  0.61001220     0.09200
H613        H  0.84477848  0.26582815  0.61201619     0.13700
H614        H  0.92833489  0.16727118  0.54915860    -0.00500
H615        H  0.81375724  0.15543349  0.64517880     0.14000
H616        H  0.95045281  0.19754781  0.67229158     0.13800
C617        C  0.77942371  0.26464061  0.50835184     0.02300
C618        C  0.80538391  0.24297960  0.53775538    -0.13900
C619        C  0.86046489  0.23991736  0.53822301    -0.00200
C620        C  0.88959029  0.25623926  0.50663386    -0.12400
C621        C  0.86313368  0.27710352  0.97605779     0.02300
C622        C  0.80835608  0.28268648  0.97827774    -0.11800
H623        H  0.78243489  0.22872555  0.56088334     0.07900
H624        H  0.93174683  0.25206231  0.50547107     0.05400
H625        H  0.78765030  0.29775369  0.95445237     0.05200
C626        C  0.87199557  0.46386139  0.86641870     0.85600
C627        C  0.93074979  0.46039813  0.86306504    -0.54600
C628        C  0.95624500  0.44037672  0.89281262     0.08600
C629        C  0.91770524  0.42708866  0.92560873     0.19500
C630        C  0.85226157  0.41998480  0.87439950    -0.55300
C631        C  0.87787354  0.39891730  0.90372303     0.08700
C632        C  0.86373085  0.48690640  0.90436392    -0.54900
C633        C  0.88577735  0.46740328  0.93618137     0.09200
H634        H  0.94987690  0.47518683  0.83848916     0.13700
H635        H  0.93698217  0.41224392  0.95108090    -0.00500
H636        H  0.82282201  0.40671319  0.85544023     0.14000
H637        H  0.83743830  0.01337689  0.90675320     0.13800
C638        C  0.87057854  0.04483002  0.64116322     0.85600
C639        C  0.92735300  0.05829637  0.64469187    -0.54600
C640        C  0.95186696  0.06839684  0.61049941     0.08600
C641        C  0.91189001  0.07334537  0.57667878     0.19500
C642        C  0.84190369  0.08189354  0.62463605    -0.55300
C643        C  0.86716022  0.10179350  0.59409360     0.08700
C644        C  0.86931622  0.01345184  0.60804184    -0.54900
C645        C  0.88697715  0.02890034  0.57301575     0.09200
H646        H  0.94704077  0.05703246  0.67277683     0.13700
H647        H  0.92920590  0.08501618  0.54899749    -0.00500
H648        H  0.80754265  0.09306109  0.63983119     0.14000
H649        H  0.84777037  0.98440614  0.61034658     0.13800
C650        C  0.77865659  0.98938992  0.00789878     0.02300
C651        C  0.80673731  0.47129526  0.97739673    -0.13900
C652        C  0.86160458  0.47602970  0.97473703    -0.00200
C653        C  0.88909924  0.99610870  0.00521819    -0.12400
C654        C  0.86102701  0.01247716  0.53726734     0.02300
C655        C  0.80572924  0.01030463  0.53733462    -0.11800
H656        H  0.78534221  0.45649416  0.95375961     0.07900
H657        H  0.93135015  0.99948786  0.00372664     0.05400
H658        H  0.78358444  0.02439152  0.56096361     0.05200
O659        O  0.11162053  0.48043588  0.67966526    -0.73800
O660        O  0.11372151  0.44527104  0.79239742    -0.74800
O661        O  0.03403569  0.46711217  0.73862573    -0.63400
O662        O  0.19265858  0.45828449  0.73454620    -0.71800
O663        O  0.19823436  0.02362354  0.75503590    -0.71400
O664        O  0.04018001  0.03236431  0.75892302    -0.62600
O665        O  0.11974974  0.01054841  0.81306307    -0.75100
O666        O  0.11883013  0.04519863  0.70116735    -0.73900
Cu667      Cu  0.11328368  0.46040194  0.73565164     1.04600
Cu668      Cu  0.11998275  0.03015228  0.75755867     1.04300
C669        C  0.11282440  0.01945738  0.67301751     0.92400
C670        C  0.11369033  0.47197304  0.82015119     0.91500
C671        C  0.01205655  0.00086679  0.74979601     0.83700
C672        C  0.22017249  0.98983291  0.74433672     0.90000
O673        O  0.76857808  0.47614937  0.74579233    -0.73800
O674        O  0.92645693  0.47143297  0.74267611    -0.74800
O675        O  0.84795082  0.45559766  0.79978520    -0.63400
O676        O  0.84711388  0.49206669  0.68814759    -0.71800
O677        O  0.85181585  0.05737470  0.70881541    -0.71400
O678        O  0.85262744  0.02036865  0.82166130    -0.62600
O679        O  0.93124328  0.03656312  0.76351823    -0.75100
O680        O  0.77222756  0.04163860  0.76613826    -0.73900
Cu681      Cu  0.84690743  0.47165311  0.74354014     1.04600
Cu682      Cu  0.85155998  0.04138624  0.76573872     1.04300
C683        C  0.74570716  0.00952483  0.75649087     0.92400
C684        C  0.95391918  0.00316113  0.75214735     0.91500
C685        C  0.85254840  0.48125409  0.82813442     0.83700
C686        C  0.85270548  0.03070844  0.68099929     0.90000
C687        C  0.09816813  0.29560535  0.85894693     0.85600
C688        C  0.04098625  0.30782319  0.85611834    -0.54600
C689        C  0.01695633  0.31783642  0.89052767     0.08600
C690        C  0.05752037  0.32334059  0.92397098     0.19500
C691        C  0.12579006  0.33341632  0.87478171    -0.55300
C692        C  0.10117487  0.35249484  0.90604602     0.08700
C693        C  0.10125895  0.26433575  0.89199413    -0.54900
C694        C  0.08372894  0.27931654  0.92719709     0.09200
H695        H  0.02090233  0.30634386  0.82819274     0.13700
H696        H  0.04052712  0.33463647  0.95189429    -0.00500
H697        H  0.15855042  0.34561087  0.85840935     0.14000
H698        H  0.12320943  0.23551895  0.88930744     0.13800
C699        C  0.09518877  0.21601127  0.63359526     0.85600
C700        C  0.03613946  0.21542896  0.63499143    -0.54600
C701        C  0.01120452  0.19374372  0.60604102     0.08600
C702        C  0.05048169  0.17759267  0.57478521     0.19500
C703        C  0.11221607  0.17097896  0.62837257    -0.55300
C704        C  0.08786392  0.14948166  0.59887646     0.08700
C705        C  0.10749699  0.23629856  0.59486474    -0.54900
C706        C  0.08532426  0.21619926  0.56337809     0.09200
H707        H  0.01623752  0.23220540  0.65812587     0.13700
H708        H  0.03155169  0.16189389  0.54962059    -0.00500
H709        H  0.14007253  0.15771991  0.64856374     0.14000
H710        H  0.13513412  0.26184189  0.59204371     0.13800
C711        C  0.19152341  0.23657143  0.49062530     0.02300
C712        C  0.16465010  0.25903806  0.96217605    -0.13900
C713        C  0.10949571  0.26217159  0.96272866    -0.00200
C714        C  0.08145218  0.24548683  0.49465704    -0.12400
C715        C  0.10881655  0.22409270  0.52444099     0.02300
C716        C  0.16346895  0.21826029  0.52107637    -0.11800
H717        H  0.18686819  0.27357187  0.93881075     0.07900
H718        H  0.03935790  0.24969318  0.49664627     0.05400
H719        H  0.18484200  0.20277535  0.54432789     0.05200
C720        C  0.09608666  0.45768135  0.85979205     0.85600
C721        C  0.09817369  0.48827337  0.89350356    -0.54600
C722        C  0.08031013  0.47226009  0.92825994     0.08600
C723        C  0.05505679  0.42802329  0.92388190     0.19500
C724        C  0.12417053  0.41986015  0.87502969    -0.55300
C725        C  0.09983774  0.39994365  0.90589920     0.08700
C726        C  0.03926446  0.44484608  0.85623958    -0.54900
C727        C  0.01484778  0.43385518  0.89015684     0.09200
H728        H  0.12007724  0.01718439  0.89165694     0.13700
H729        H  0.03778281  0.41587747  0.95139097    -0.00500
H730        H  0.15742525  0.40847224  0.85870393     0.14000
H731        H  0.01987229  0.44639094  0.82807830     0.13800
C732        C  0.09371341  0.03700494  0.63477044     0.85600
C733        C  0.10394774  0.01511647  0.59652005    -0.54600
C734        C  0.08227341  0.03495736  0.56473253     0.08600
C735        C  0.04932970  0.07475983  0.57554932     0.19500
C736        C  0.11272953  0.08127635  0.62811579    -0.55300
C737        C  0.08810834  0.10268990  0.59866936     0.08700
C738        C  0.03477586  0.03945904  0.63706785    -0.54900
C739        C  0.01008216  0.06041738  0.60754604     0.09200
H740        H  0.13051742  0.98883173  0.59410208     0.13700
H741        H  0.03056507  0.09015009  0.55015190    -0.00500
H742        H  0.14170362  0.09427852  0.64759686     0.14000
H743        H  0.01483538  0.02404721  0.66098302     0.13800
C744        C  0.18875246  0.01064909  0.49338742     0.02300
C745        C  0.16099496  0.03003980  0.52334294    -0.13900
C746        C  0.10605088  0.02602703  0.52606230    -0.00200
C747        C  0.07826625  0.00563357  0.49587406    -0.12400
C748        C  0.10617271  0.48806752  0.96426324     0.02300
C749        C  0.16144907  0.48924335  0.96444000    -0.11800
H750        H  0.18264362  0.04516458  0.54667171     0.07900
H751        H  0.03593485  0.00293800  0.49725631     0.05400
H752        H  0.18338167  0.47438340  0.94111459     0.05200
O753        O  0.54299929  0.72070464  0.49135172    -0.73800
O754        O  0.70016218  0.72939347  0.49554407    -0.74800
O755        O  0.62103484  0.70750235  0.04930826    -0.63400
O756        O  0.62185139  0.74319192  0.43756445    -0.71800
O757        O  0.61487939  0.80838660  0.45825460    -0.71400
O758        O  0.61370474  0.77209553  0.07110821    -0.62600
O759        O  0.69446988  0.79476023  0.01600336    -0.75100
O760        O  0.53595119  0.78575498  0.01213490    -0.73900
Cu761      Cu  0.62226608  0.72303419  0.49291099     1.04600
Cu762      Cu  0.61509170  0.79266573  0.01506589     1.04300
C763        C  0.51454743  0.75193468  0.50048819     0.92400
C764        C  0.72196145  0.76313693  0.00641989     0.91500
C765        C  0.61486122  0.73302624  0.07763374     0.83700
C766        C  0.61487825  0.78169708  0.43048486     0.90000
O767        O  0.35641750  0.69239055  0.03918469    -0.73800
O768        O  0.35681644  0.72863781  0.42670491    -0.74800
O769        O  0.43525887  0.71522859  0.48544605    -0.63400
O770        O  0.27642020  0.70614484  0.48206363    -0.71800
O771        O  0.27120913  0.77171192  0.00197836    -0.71400
O772        O  0.42827330  0.78006338  0.00682883    -0.62600
O773        O  0.35068088  0.79329332  0.44867164    -0.75100
O774        O  0.34871056  0.75750354  0.06001182    -0.73900
Cu775      Cu  0.35596398  0.70817857  0.48262862     1.04600
Cu776      Cu  0.34902887  0.77781546  0.00488641     1.04300
C777        C  0.35554698  0.71897957  0.06699871     0.92400
C778        C  0.35582576  0.76769833  0.42029824     0.91500
C779        C  0.45670497  0.74891618  0.49742886     0.83700
C780        C  0.24912193  0.73792607  0.99159832     0.90000
C781        C  0.37449836  0.78551607  0.38206170     0.85600
C782        C  0.43328964  0.78893186  0.38484736    -0.54600
C783        C  0.45796505  0.81040776  0.35569806     0.08600
C784        C  0.41876110  0.82449178  0.32356207     0.19500
C785        C  0.35426257  0.82946932  0.37555215    -0.55300
C786        C  0.37881851  0.85156416  0.34657731     0.08700
C787        C  0.36547989  0.76370607  0.34350002    -0.54900
C788        C  0.38707551  0.78426923  0.31203620     0.09200
H789        H  0.45327253  0.77340771  0.40867049     0.13700
H790        H  0.43755991  0.84036333  0.29844027    -0.00500
H791        H  0.32482702  0.84193359  0.39498510     0.14000
H792        H  0.33921226  0.73728517  0.34058309     0.13800
C793        C  0.37254017  0.70508148  0.10687319     0.85600
C794        C  0.43022056  0.69483491  0.10511601    -0.54600
C795        C  0.45345548  0.68506921  0.13987924     0.08600
C796        C  0.41194361  0.67767584  0.17256223     0.19500
C797        C  0.34677406  0.66600311  0.12115789    -0.55300
C798        C  0.36977912  0.64770182  0.15349066     0.08700
C799        C  0.36624590  0.73556464  0.14028701    -0.54900
C800        C  0.38376508  0.72091133  0.17559044     0.09200
H801        H  0.45112218  0.69731771  0.07758773     0.13700
H802        H  0.42849628  0.66641032  0.20064387    -0.00500
H803        H  0.31636411  0.65286069  0.10306571     0.14000
H804        H  0.34371045  0.76406689  0.13736802     0.13800
C805        C  0.27895155  0.76570548  0.24041464     0.02300
C806        C  0.30465624  0.74346627  0.21127306    -0.13900
C807        C  0.35961690  0.73908417  0.21130005    -0.00200
C808        C  0.38877419  0.75492022  0.24310516    -0.12400
C809        C  0.36259288  0.77663825  0.27334601     0.02300
C810        C  0.30802362  0.78325141  0.27070719    -0.11800
H811        H  0.28152983  0.72951409  0.18807898     0.07900
H812        H  0.43075042  0.74985562  0.24463819     0.05400
H813        H  0.28746415  0.79865310  0.29441171     0.05200
C814        C  0.37308631  0.96326740  0.38505284     0.85600
C815        C  0.36352052  0.98596507  0.34709419    -0.54600
C816        C  0.38520532  0.96650261  0.31513736     0.08600
C817        C  0.41787243  0.92654668  0.32547704     0.19500
C818        C  0.35388109  0.91913247  0.37759286    -0.55300
C819        C  0.37863983  0.89831590  0.34772902     0.08700
C820        C  0.43193160  0.96038175  0.38774443    -0.54900
C821        C  0.45687433  0.94009716  0.35792144     0.09200
H822        H  0.33687144  0.01222029  0.34489449     0.13700
H823        H  0.43688299  0.91171540  0.29989202    -0.00500
H824        H  0.32510692  0.90567089  0.39698852     0.14000
H825        H  0.45156426  0.97526635  0.41207118     0.13800
C826        C  0.36989265  0.54280153  0.11015877     0.85600
C827        C  0.36857043  0.51157418  0.14328900    -0.54600
C828        C  0.38639503  0.52717393  0.17819430     0.08600
C829        C  0.41169030  0.57160513  0.17426849     0.19500
C830        C  0.34145849  0.58005433  0.12661755    -0.55300
C831        C  0.36722534  0.60027302  0.15668081     0.08700
C832        C  0.42676617  0.55582349  0.10641372    -0.54900
C833        C  0.45147841  0.56628480  0.14037068     0.09200
H834        H  0.34686880  0.48258364  0.14109992     0.13700
H835        H  0.42919636  0.58330997  0.20186651    -0.00500
H836        H  0.30680206  0.59114657  0.11172853     0.14000
H837        H  0.44619728  0.55444726  0.07824366     0.13800
C838        C  0.27782524  0.98797442  0.24325346     0.02300
C839        C  0.30577132  0.97035834  0.27411012    -0.13900
C840        C  0.36071234  0.97496614  0.27669081    -0.00200
C841        C  0.38828362  0.99469535  0.24607930    -0.12400
C842        C  0.36032400  0.51087315  0.21393575     0.02300
C843        C  0.30504997  0.50849915  0.21368598    -0.11800
H844        H  0.28429127  0.95598240  0.29793734     0.07900
H845        H  0.43054159  0.99801733  0.24756924     0.05400
H846        H  0.28299102  0.52236237  0.18989532     0.05200
O847        O  0.61825961  0.54457361  0.04937598    -0.73800
O848        O  0.62029628  0.50935087  0.43768885    -0.74800
O849        O  0.54031630  0.53036838  0.49178752    -0.63400
O850        O  0.69838622  0.52409227  0.49594541    -0.71800
O851        O  0.69409621  0.95856871  0.01606851    -0.71400
O852        O  0.53510208  0.96524782  0.01259101    -0.62600
O853        O  0.61490665  0.94403664  0.45831047    -0.75100
O854        O  0.61297204  0.97977964  0.07111148    -0.73900
Cu855      Cu  0.62000262  0.52928040  0.49314488     1.04600
Cu856      Cu  0.61463231  0.95951413  0.01516279     1.04300
C857        C  0.61310329  0.51883447  0.07761381     0.92400
C858        C  0.61442036  0.97074536  0.43054938     0.91500
C859        C  0.51263450  0.49880458  0.00140017     0.83700
C860        C  0.72098750  0.49059183  0.00666714     0.90000
O861        O  0.35373026  0.51965739  0.42985564    -0.73800
O862        O  0.35218991  0.55565249  0.04266564    -0.74800
O863        O  0.43194684  0.53458544  0.48817112    -0.63400
O864        O  0.27319773  0.54123432  0.48516749    -0.71800
O865        O  0.26879865  0.97550652  0.00474623    -0.71400
O866        O  0.42678987  0.96957902  0.00930422    -0.62600
O867        O  0.34624652  0.99031626  0.06315089    -0.75100
O868        O  0.34913615  0.95481626  0.45158087    -0.73900
Cu869      Cu  0.35242331  0.54018582  0.48579812     1.04600
Cu870      Cu  0.34708588  0.97037704  0.00774867     1.04300
C871        C  0.35385400  0.98057142  0.42334152     0.92400
C872        C  0.35213713  0.52888284  0.07038442     0.91500
C873        C  0.45445246  0.50111069  0.99953500     0.83700
C874        C  0.24631323  0.50918524  0.99441056     0.90000
C875        C  0.59651708  0.95659997  0.39082939     0.85600
C876        C  0.53989932  0.94303752  0.39456870    -0.54600
C877        C  0.51525919  0.93269536  0.36053412     0.08600
C878        C  0.55508506  0.92784707  0.32651314     0.19500
C879        C  0.62504893  0.91936853  0.37462184    -0.55300
C880        C  0.60034301  0.89974760  0.34369277     0.08700
C881        C  0.59756623  0.98787538  0.35757931    -0.54900
C882        C  0.57962575  0.97232800  0.32265899     0.09200
H883        H  0.52052993  0.94412317  0.42277373     0.13700
H884        H  0.53760309  0.91606296  0.29893824    -0.00500
H885        H  0.65876360  0.90792407  0.39039424     0.14000
H886        H  0.61916404  0.01691298  0.35970267     0.13800
C887        C  0.59377925  0.53627986  0.11581782     0.85600
C888        C  0.53488330  0.53887196  0.11325751    -0.54600
C889        C  0.50995714  0.55960217  0.14283325     0.08600
C890        C  0.54904294  0.57412725  0.17483116     0.19500
C891        C  0.61298057  0.58043547  0.12257999    -0.55300
C892        C  0.58804905  0.60201799  0.15173499     0.08700
C893        C  0.60353658  0.51430945  0.15409220    -0.54900
C894        C  0.58174812  0.53424710  0.18579936     0.09200
H895        H  0.51518587  0.52327324  0.08936352     0.13700
H896        H  0.53015347  0.58957940  0.20015134    -0.00500
H897        H  0.64239212  0.59324378  0.10334516     0.14000
H898        H  0.62998349  0.48795906  0.15661509     0.13800
C899        C  0.68813891  0.51063642  0.25739690     0.02300
C900        C  0.66042129  0.52941325  0.22712082    -0.13900
C901        C  0.60548486  0.52548275  0.22449733    -0.00200
C902        C  0.57765017  0.50555096  0.25493915    -0.12400
C903        C  0.60554544  0.98845619  0.28679468     0.02300
C904        C  0.66083341  0.98973892  0.28667138    -0.11800
H905        H  0.68210250  0.54417741  0.20360196     0.07900
H906        H  0.53532603  0.50278291  0.25353934     0.05400
H907        H  0.68278310  0.97523418  0.31017936     0.05200
C908        C  0.59711525  0.79559321  0.39065714     0.85600
C909        C  0.59942887  0.76413512  0.35769807    -0.54600
C910        C  0.58221910  0.77917543  0.32243429     0.08600
C911        C  0.55684345  0.82350009  0.32559107     0.19500
C912        C  0.62541884  0.83299225  0.37464212    -0.55300
C913        C  0.60106691  0.85226801  0.34340208     0.08700
C914        C  0.54015461  0.80857498  0.39355319    -0.54900
C915        C  0.51618354  0.81849967  0.35906279     0.09200
H916        H  0.62092132  0.73511030  0.36044111     0.13700
H917        H  0.53998179  0.83492274  0.29766809    -0.00500
H918        H  0.65834199  0.84494903  0.39098550     0.14000
H919        H  0.52001915  0.80728054  0.42146788     0.13800
C920        C  0.59565807  0.71522018  0.11596389     0.85600
C921        C  0.60815010  0.73557112  0.15463849    -0.54600
C922        C  0.58569015  0.71578888  0.18620435     0.08600
C923        C  0.55068907  0.67724922  0.17501621     0.19500
C924        C  0.61216684  0.67007948  0.12129291    -0.55300
C925        C  0.58780420  0.64884803  0.15101771     0.08700
C926        C  0.53659917  0.71495924  0.11469653    -0.54900
C927        C  0.51155196  0.69344125  0.14377275     0.09200
H928        H  0.63585424  0.76107908  0.15736572     0.13700
H929        H  0.53168468  0.66171926  0.20024877    -0.00500
H930        H  0.63962191  0.65656869  0.10095113     0.14000
H931        H  0.51682364  0.73184366  0.09157955     0.13800
C932        C  0.69081624  0.73661559  0.25954692     0.02300
C933        C  0.66356663  0.75880448  0.28799508    -0.13900
C934        C  0.60840051  0.76197143  0.28706371    -0.00200
C935        C  0.58077578  0.74539227  0.25486076    -0.12400
C936        C  0.60859179  0.72408753  0.22522662     0.02300
C937        C  0.66317186  0.71837670  0.22890601    -0.11800
H938        H  0.68551190  0.77322845  0.31155763     0.07900
H939        H  0.53870060  0.74955961  0.25257741     0.05400
H940        H  0.68485908  0.70298840  0.20575270     0.05200
O941        O  0.11261535  0.77293633  0.17842670    -0.73800
O942        O  0.11496506  0.80864899  0.29133529    -0.74800
O943        O  0.19379087  0.79579110  0.23302918    -0.63400
O944        O  0.03527308  0.78598330  0.23782585    -0.71800
O945        O  0.04271491  0.72092398  0.25846164    -0.71400
O946        O  0.19988438  0.73037399  0.25327043    -0.62600
O947        O  0.12248452  0.74341104  0.31181682    -0.75100
O948        O  0.12049190  0.70833596  0.20011365    -0.73900
Cu949      Cu  0.11442202  0.79326086  0.23447883     1.04600
Cu950      Cu  0.12213634  0.72359734  0.25643018     1.04300
C951        C  0.11416469  0.73389424  0.17185484     0.92400
C952        C  0.11565329  0.78188646  0.31904276     0.91500
C953        C  0.22147953  0.76421150  0.24243212     0.83700
C954        C  0.01403242  0.75207908  0.24942100     0.90000
O955        O  0.85673140  0.72904238  0.32311769    -0.73800
O956        O  0.85545341  0.69311313  0.21027527    -0.74800
O957        O  0.93466516  0.71519262  0.26417751    -0.63400
O958        O  0.77582252  0.70649577  0.26810097    -0.71800
O959        O  0.77033262  0.77199360  0.24801777    -0.71400
O960        O  0.92762639  0.78018058  0.24325588    -0.62600
O961        O  0.84795918  0.75837241  0.18982807    -0.75100
O962        O  0.84981248  0.79365486  0.30118232    -0.73900
Cu963      Cu  0.85535016  0.70849805  0.26713203     1.04600
Cu964      Cu  0.84822737  0.77817878  0.24507372     1.04300
C965        C  0.85562855  0.76813930  0.32949695     0.92400
C966        C  0.85485676  0.71993781  0.18259950     0.91500
C967        C  0.95611559  0.74896787  0.25245437     0.83700
C968        C  0.74839284  0.73821030  0.25861003     0.90000
C969        C  0.87489679  0.78615574  0.36749240     0.85600
C970        C  0.86597561  0.76431933  0.40600271    -0.54600
C971        C  0.88775885  0.78471761  0.43746668     0.08600
C972        C  0.91964976  0.82479944  0.42601847     0.19500
C973        C  0.85516410  0.83028643  0.37406020    -0.55300
C974        C  0.87965410  0.85210401  0.40330004     0.08700
C975        C  0.93363515  0.78933758  0.36452117    -0.54900
C976        C  0.95859605  0.81055868  0.39371958     0.09200
H977        H  0.83958740  0.73796754  0.40889937     0.12900
H978        H  0.93876231  0.84050099  0.45110484    -0.00500
H979        H  0.82589774  0.84296518  0.35462474     0.14000
H980        H  0.95332636  0.77371343  0.34061082     0.13800
C981        C  0.87209604  0.70637552  0.14262734     0.85600
C982        C  0.86708199  0.73719011  0.10927956    -0.54600
C983        C  0.88475921  0.72231885  0.07405477     0.08600
C984        C  0.91176991  0.67867150  0.07718967     0.19500
C985        C  0.84527709  0.66798584  0.12776977    -0.55300
C986        C  0.86871373  0.64926131  0.09588782     0.08700
C987        C  0.92964562  0.69523184  0.14470345    -0.54900
C988        C  0.95307412  0.68533446  0.11001275     0.09200
H989        H  0.84477733  0.76582632  0.11201529     0.13700
H990        H  0.92833454  0.66726896  0.04915901    -0.00500
H991        H  0.81375446  0.65543222  0.14517759     0.14000
H992        H  0.95045032  0.69754580  0.17229205     0.13800
C993        C  0.77942316  0.76463770  0.00835104     0.02300
C994        C  0.80538343  0.74297638  0.03775437    -0.13900
C995        C  0.86046453  0.73991492  0.03822234    -0.00200
C996        C  0.88958990  0.75623756  0.00663346    -0.12400
C997        C  0.86313237  0.77710380  0.47605802     0.02300
C998        C  0.80835488  0.78268694  0.47827827    -0.11800
H999        H  0.78243457  0.72872197  0.06088204     0.07900
H1000       H  0.93174666  0.75206122  0.00547097     0.05400
H1001       H  0.78764903  0.79775494  0.45445319     0.05200
C1002       C  0.87199588  0.96386195  0.36641925     0.85600
C1003       C  0.93075003  0.96039791  0.36306524    -0.54600
C1004       C  0.95624520  0.94037627  0.39281274     0.08600
C1005       C  0.91770558  0.92708865  0.42560898     0.19500
C1006       C  0.85226088  0.91998563  0.37440032    -0.55300
C1007       C  0.87787313  0.89891773  0.40372347     0.08700
C1008       C  0.86373227  0.98690716  0.40436446    -0.54900
C1009       C  0.88577876  0.96740374  0.43618178     0.09200
H1010       H  0.94987711  0.97518660  0.33848942     0.13700
H1011       H  0.93698253  0.91224378  0.45108111    -0.00500
H1012       H  0.82282066  0.90671444  0.35544151     0.14000
H1013       H  0.83743744  0.51337702  0.40675347     0.13800
C1014       C  0.87057815  0.54482895  0.14116367     0.85600
C1015       C  0.92735243  0.55829579  0.14469180    -0.54600
C1016       C  0.95186588  0.56839583  0.11049905     0.08600
C1017       C  0.91188850  0.57334363  0.07667863     0.19500
C1018       C  0.84190259  0.58189197  0.12463627    -0.55300
C1019       C  0.86715865  0.60179172  0.09409344     0.08700
C1020       C  0.86931580  0.51345029  0.10804261    -0.54900
C1021       C  0.88697614  0.52889836  0.07301621     0.09200
H1022       H  0.94704077  0.55703228  0.17277664     0.13700
H1023       H  0.92920397  0.58501429  0.04899710    -0.00500
H1024       H  0.80754189  0.59305949  0.13983169     0.14000
H1025       H  0.84777031  0.48440440  0.11034781     0.13800
C1026       C  0.77865602  0.48938789  0.50789953     0.02300
C1027       C  0.80673900  0.97129564  0.47739722    -0.13900
C1028       C  0.86160621  0.97603028  0.47473742    -0.00200
C1029       C  0.88909863  0.49610770  0.50521831    -0.12400
C1030       C  0.86102575  0.51247460  0.03726806     0.02300
C1031       C  0.80572800  0.51030168  0.03733563    -0.11800
H1032       H  0.78534409  0.95649369  0.45376043     0.07900
H1033       H  0.93134952  0.49948732  0.50372650     0.05400
H1034       H  0.78358329  0.52438781  0.06096512     0.05200
O1035       O  0.11162353  0.98043704  0.17966504    -0.73800
O1036       O  0.11372110  0.94527104  0.29239720    -0.74800
O1037       O  0.03403664  0.96711357  0.23862473    -0.63400
O1038       O  0.19265997  0.95828490  0.23454738    -0.71800
O1039       O  0.19823477  0.52362257  0.25503451    -0.71400
O1040       O  0.04018011  0.53236381  0.25892280    -0.62600
O1041       O  0.11975047  0.51054944  0.31306255    -0.75100
O1042       O  0.11883002  0.54519697  0.20116649    -0.73900
Cu1043     Cu  0.11328489  0.96040269  0.23565152     1.04600
Cu1044     Cu  0.11998308  0.53015175  0.25755787     1.04300
C1045       C  0.11282295  0.51945561  0.17301694     0.92400
C1046       C  0.11369075  0.97197254  0.32015139     0.91500
C1047       C  0.01205638  0.50086601  0.24979692     0.83700
C1048       C  0.22017250  0.48983181  0.24433519     0.90000
O1049       O  0.76857884  0.97614987  0.24579268    -0.73800
O1050       O  0.92645789  0.97143392  0.24267659    -0.74800
O1051       O  0.84795159  0.95559848  0.29978564    -0.63400
O1052       O  0.84711463  0.99206727  0.18814786    -0.71800
O1053       O  0.85181645  0.55737438  0.20881595    -0.71400
O1054       O  0.85262660  0.52036880  0.32166185    -0.62600
O1055       O  0.93124326  0.53656266  0.26351922    -0.75100
O1056       O  0.77222725  0.54163926  0.26613864    -0.73900
Cu1057     Cu  0.84690828  0.97165384  0.24354054     1.04600
Cu1058     Cu  0.85155988  0.54138632  0.26573936     1.04300
C1059       C  0.74570658  0.50952561  0.25649130     0.92400
C1060       C  0.95391894  0.50316051  0.25214851     0.91500
C1061       C  0.85254886  0.98125484  0.32813496     0.83700
C1062       C  0.85270569  0.53070788  0.18100000     0.90000
C1063       C  0.09816653  0.79560394  0.35894710     0.85600
C1064       C  0.04098499  0.80782296  0.35611861    -0.54600
C1065       C  0.01695541  0.81783595  0.39052813     0.08600
C1066       C  0.05751962  0.82333907  0.42397139     0.19500
C1067       C  0.12578973  0.83341415  0.37478239    -0.55300
C1068       C  0.10117472  0.85249293  0.40604663     0.08700
C1069       C  0.10125644  0.76433382  0.39199396    -0.54900
C1070       C  0.08372702  0.77931457  0.42719710     0.09200
H1071       H  0.02090092  0.80634442  0.32819317     0.13700
H1072       H  0.04052665  0.83463490  0.45189485    -0.00500
H1073       H  0.15855068  0.84560825  0.35841044     0.14000
H1074       H  0.12320633  0.73551679  0.38930702     0.13800
C1075       C  0.09518750  0.71601004  0.13359540     0.85600
C1076       C  0.03613821  0.71542633  0.13499254    -0.54600
C1077       C  0.01120325  0.69374141  0.10604196     0.08600
C1078       C  0.05048025  0.67759166  0.07478545     0.19500
C1079       C  0.11221629  0.67097824  0.12837176    -0.55300
C1080       C  0.08786365  0.64948088  0.09887596     0.08700
C1081       C  0.10749404  0.73629837  0.09486508    -0.54900
C1082       C  0.08532162  0.71619899  0.06337843     0.09200
H1083       H  0.01623645  0.73220188  0.15812752     0.13700
H1084       H  0.03155024  0.66189310  0.04962081    -0.00500
H1085       H  0.14007376  0.65771935  0.14856249     0.14000
H1086       H  0.13513071  0.76184204  0.09204409     0.13800
C1087       C  0.19152167  0.73656921  0.99062509     0.02300
C1088       C  0.16464869  0.75903609  0.46217554    -0.13900
C1089       C  0.10949428  0.76216948  0.46272839    -0.00200
C1090       C  0.08145028  0.74548497  0.99465692    -0.12400
C1091       C  0.10881471  0.72409208  0.02444152     0.02300
C1092       C  0.16346725  0.71825980  0.02107718    -0.11800
H1093       H  0.18686654  0.77356964  0.43880989     0.07900
H1094       H  0.03935604  0.74969162  0.99664622     0.05400
H1095       H  0.18484040  0.70277593  0.04432935     0.05200
C1096       C  0.09608700  0.95768029  0.35979225     0.85600
C1097       C  0.09817504  0.98827158  0.39350438    -0.54600
C1098       C  0.08031112  0.97225803  0.42826060     0.08600
C1099       C  0.05505687  0.92802166  0.42388198     0.19500
C1100       C  0.12416974  0.91985813  0.37502907    -0.55300
C1101       C  0.09983716  0.89994175  0.40589881     0.08700
C1102       C  0.03926462  0.94484588  0.35623984    -0.54900
C1103       C  0.01484791  0.93385463  0.39015698     0.09200
H1104       H  0.12007529  0.51718761  0.39165641     0.13700
H1105       H  0.03778266  0.91587564  0.45139087    -0.00500
H1106       H  0.15742349  0.90846969  0.35870260     0.14000
H1107       H  0.01987255  0.94639124  0.32807857     0.13800
C1108       C  0.09371203  0.53700353  0.13476991     0.85600
C1109       C  0.10394726  0.51511604  0.09651912    -0.54600
C1110       C  0.08227290  0.53495750  0.06473189     0.08600
C1111       C  0.04932856  0.57475935  0.07554912     0.19500
C1112       C  0.11272746  0.58127545  0.12811620    -0.55300
C1113       C  0.08810675  0.60268917  0.09866965     0.08700
C1114       C  0.03477444  0.53945697  0.13706686    -0.54900
C1115       C  0.01008092  0.56041596  0.10754537     0.09200
H1116       H  0.13051722  0.48883161  0.09410072     0.13700
H1117       H  0.03056387  0.59014988  0.05015189    -0.00500
H1118       H  0.14170085  0.59427774  0.14759768     0.14000
H1119       H  0.01483366  0.52404450  0.16098157     0.13800
C1120       C  0.18875198  0.51065132  0.99338647     0.02300
C1121       C  0.16099452  0.53004123  0.02334241    -0.13900
C1122       C  0.10605048  0.52602837  0.02606162    -0.00200
C1123       C  0.07826581  0.50563557  0.99587312    -0.12400
C1124       C  0.10617324  0.98806503  0.46426434     0.02300
C1125       C  0.16144962  0.98924046  0.46444134    -0.11800
H1126       H  0.18264324  0.54516537  0.04667160     0.07900
H1127       H  0.03593441  0.50293977  0.99725542     0.05400
H1128       H  0.18338216  0.97438016  0.44111625     0.05200
O1129       O  0.54299600  0.72070695  0.99135221    -0.73800
O1130       O  0.70015912  0.72939485  0.99554648    -0.74800
O1131       O  0.62104035  0.70749913  0.54930657    -0.63400
O1132       O  0.62184940  0.74319257  0.93756525    -0.71800
O1133       O  0.61487563  0.80838728  0.95825481    -0.71400
O1134       O  0.61370999  0.77209242  0.57110650    -0.62600
O1135       O  0.69447436  0.79475848  0.51600237    -0.75100
O1136       O  0.53595571  0.78575282  0.51213425    -0.73900
Cu1137     Cu  0.62226252  0.72303615  0.99291241     1.04600
Cu1138     Cu  0.61509620  0.79266375  0.51506508     1.04300
C1139       C  0.51454360  0.75193654  0.00048894     0.92400
C1140       C  0.72196517  0.76313497  0.50641825     0.91500
C1141       C  0.61486666  0.73302315  0.57763193     0.83700
C1142       C  0.61487618  0.78169759  0.93048517     0.90000
O1143       O  0.35641995  0.69239469  0.53918441    -0.73800
O1144       O  0.35681520  0.72863652  0.92670618    -0.74800
O1145       O  0.43525662  0.71522847  0.98544742    -0.63400
O1146       O  0.27641846  0.70614065  0.98206299    -0.71800
O1147       O  0.27121321  0.77171698  0.50197677    -0.71400
O1148       O  0.42827816  0.78006386  0.50682694    -0.62600
O1149       O  0.35067634  0.79329150  0.94867363    -0.75100
O1150       O  0.34871432  0.75750829  0.56001022    -0.73900
Cu1151     Cu  0.35596218  0.70817622  0.98262921     1.04600
Cu1152     Cu  0.34903336  0.77781850  0.50488454     1.04300
C1153       C  0.35555000  0.71898446  0.56699784     0.92400
C1154       C  0.35582320  0.76769704  0.92029995     0.91500
C1155       C  0.45670133  0.74891664  0.99743020     0.83700
C1156       C  0.24912477  0.73793109  0.49159824     0.90000
C1157       C  0.37449557  0.78551529  0.88206345     0.85600
C1158       C  0.43328739  0.78892702  0.88484645    -0.54600
C1159       C  0.45796239  0.81040402  0.85569747     0.08600
C1160       C  0.41875755  0.82449159  0.82356360     0.19500
C1161       C  0.35426387  0.82947013  0.87555688    -0.55300
C1162       C  0.37881801  0.85156464  0.84658115     0.08700
C1163       C  0.36547202  0.76370793  0.84350106    -0.54900
C1164       C  0.38706868  0.78427096  0.81203751     0.09200
H1165       H  0.45327073  0.77339969  0.90866751     0.13700
H1166       H  0.43755592  0.84036365  0.79844187    -0.00500
H1167       H  0.32483123  0.84193529  0.89499192     0.14000
H1168       H  0.33920291  0.73728798  0.84058384     0.13800
C1169       C  0.37254270  0.70508712  0.60687248     0.85600
C1170       C  0.43022306  0.69484067  0.60511590    -0.54600
C1171       C  0.45345769  0.68507451  0.63987914     0.08600
C1172       C  0.41194478  0.67768088  0.67256168     0.19500
C1173       C  0.34677603  0.66600885  0.62115652    -0.55300
C1174       C  0.36977997  0.64770739  0.65348943     0.08700
C1175       C  0.36624795  0.73557011  0.64028634    -0.54900
C1176       C  0.38376607  0.72091638  0.67558997     0.09200
H1177       H  0.45112461  0.69732299  0.57758748     0.13700
H1178       H  0.42849684  0.66641501  0.70064344    -0.00500
H1179       H  0.31636631  0.65286677  0.60306405     0.14000
H1180       H  0.34371250  0.76407242  0.63736720     0.13800
C1181       C  0.27895020  0.76571058  0.74041221     0.02300
C1182       C  0.30465544  0.74347162  0.71127072    -0.13900
C1183       C  0.35961597  0.73908829  0.71129940    -0.00200
C1184       C  0.38877153  0.75492193  0.74310646    -0.12400
C1185       C  0.36258900  0.77664022  0.77334660     0.02300
C1186       C  0.30802071  0.78325526  0.77070586    -0.11800
H1187       H  0.28152975  0.72952050  0.68807577     0.07900
H1188       H  0.43074736  0.74985591  0.74464118     0.05400
H1189       H  0.28746038  0.79865704  0.79440992     0.05200
C1190       C  0.37308160  0.96326780  0.88505405     0.85600
C1191       C  0.36352068  0.98596680  0.84709538    -0.54600
C1192       C  0.38520636  0.96650392  0.81513911     0.08600
C1193       C  0.41787055  0.92654692  0.82547961     0.19500
C1194       C  0.35387426  0.91913372  0.87759223    -0.55300
C1195       C  0.37863570  0.89831654  0.84772989     0.08700
C1196       C  0.43192665  0.96037947  0.88774856    -0.54900
C1197       C  0.45687059  0.94009607  0.85792531     0.09200
H1198       H  0.33687289  0.01222268  0.84489491     0.13700
H1199       H  0.43688230  0.91171577  0.79989505    -0.00500
H1200       H  0.32509708  0.90567284  0.89698587     0.14000
H1201       H  0.45155803  0.97526197  0.91207684     0.13800
C1202       C  0.36988781  0.54280605  0.61015908     0.85600
C1203       C  0.36856434  0.51157982  0.64329034    -0.54600
C1204       C  0.38638999  0.52718029  0.67819520     0.08600
C1205       C  0.41168684  0.57161051  0.67426828     0.19500
C1206       C  0.34145529  0.58006020  0.62661711    -0.55300
C1207       C  0.36722321  0.60027887  0.65668009     0.08700
C1208       C  0.42676181  0.55582673  0.60641381    -0.54900
C1209       C  0.45147446  0.56628839  0.64037063     0.09200
H1210       H  0.34686172  0.48258979  0.64110213     0.13700
H1211       H  0.42919345  0.58331572  0.70186599    -0.00500
H1212       H  0.30679943  0.59115315  0.61172783     0.14000
H1213       H  0.44619279  0.55444945  0.57824377     0.13800
C1214       C  0.27782662  0.98797099  0.74325333     0.02300
C1215       C  0.30577233  0.97035898  0.77411211    -0.13900
C1216       C  0.36071342  0.97496628  0.77669232    -0.00200
C1217       C  0.38828517  0.99469238  0.74607920    -0.12400
C1218       C  0.36032013  0.51088066  0.71393744     0.02300
C1219       C  0.30504621  0.50850817  0.71368898    -0.11800
H1220       H  0.28429194  0.95598583  0.79794066     0.07900
H1221       H  0.43054313  0.99801457  0.74756922     0.05400
H1222       H  0.28298672  0.52237442  0.68990007     0.05200
O1223       O  0.61825255  0.54457307  0.54937768    -0.73800
O1224       O  0.62029852  0.50934852  0.93768778    -0.74800
O1225       O  0.54032123  0.53036761  0.99178764    -0.63400
O1226       O  0.69839059  0.52409103  0.99594112    -0.71800
O1227       O  0.69410247  0.95856696  0.51606553    -0.71400
O1228       O  0.53510837  0.96524786  0.51259293    -0.62600
O1229       O  0.61490416  0.94403866  0.95831042    -0.75100
O1230       O  0.61298074  0.97978010  0.57111108    -0.73900
Cu1231     Cu  0.62000736  0.52927940  0.99314312     1.04600
Cu1232     Cu  0.61463838  0.95951322  0.51516259     1.04300
C1233       C  0.61309616  0.51883339  0.57761502     0.92400
C1234       C  0.61441792  0.97074780  0.93054968     0.91500
C1235       C  0.51262929  0.49880504  0.50139878     0.83700
C1236       C  0.72098270  0.49059295  0.50667181     0.90000
O1237       O  0.35373126  0.51965652  0.92985560    -0.73800
O1238       O  0.35218316  0.55565565  0.54266549    -0.74800
O1239       O  0.43195132  0.53458331  0.98816947    -0.63400
O1240       O  0.27320075  0.54123154  0.98517111    -0.71800
O1241       O  0.26880521  0.97550136  0.50474345    -0.71400
O1242       O  0.42679678  0.96957922  0.50930784    -0.62600
O1243       O  0.34624877  0.99031392  0.56315018    -0.75100
O1244       O  0.34912343  0.95481800  0.95158073    -0.73900
Cu1245     Cu  0.35242708  0.54018359  0.98579859     1.04600
Cu1246     Cu  0.34709307  0.97037476  0.50774859     1.04300
C1247       C  0.35384726  0.98057293  0.92334178     0.92400
C1248       C  0.35213233  0.52888630  0.57038462     0.91500
C1249       C  0.45444732  0.50111154  0.49953379     0.83700
C1250       C  0.24630921  0.50918922  0.49440868     0.90000
C1251       C  0.59651396  0.95660284  0.89082979     0.85600
C1252       C  0.53989676  0.94303936  0.89457049    -0.54600
C1253       C  0.51525571  0.93269681  0.86053659     0.08600
C1254       C  0.55508009  0.92784985  0.82651444     0.19500
C1255       C  0.62504650  0.91937224  0.87462067    -0.55300
C1256       C  0.60033887  0.89975056  0.84369274     0.08700
C1257       C  0.59756039  0.98787893  0.85758025    -0.54900
C1258       C  0.57962013  0.97233137  0.82265991     0.09200
H1259       H  0.52052846  0.94412437  0.92277599     0.13700
H1260       H  0.53759712  0.91606585  0.79893985    -0.00500
H1261       H  0.65876369  0.90792901  0.89039082     0.14000
H1262       H  0.61915806  0.01691649  0.85970356     0.13800
C1263       C  0.59377352  0.53627862  0.61581927     0.85600
C1264       C  0.53487795  0.53887272  0.61325855    -0.54600
C1265       C  0.50995280  0.55960412  0.64283387     0.08600
C1266       C  0.54903918  0.57412817  0.67483202     0.19500
C1267       C  0.61297772  0.58043343  0.62258154    -0.55300
C1268       C  0.58804711  0.60201737  0.65173594     0.08700
C1269       C  0.60352934  0.51430794  0.65409371    -0.54900
C1270       C  0.58174239  0.53424690  0.68580074     0.09200
H1271       H  0.51518004  0.52327433  0.58936476     0.13700
H1272       H  0.53015022  0.58958130  0.70015195    -0.00500
H1273       H  0.64239126  0.59324014  0.60334740     0.14000
H1274       H  0.62997538  0.48795697  0.65661683     0.13800
C1275       C  0.68813795  0.51063767  0.75739463     0.02300
C1276       C  0.66041799  0.52941667  0.72712069    -0.13900
C1277       C  0.60548156  0.52548361  0.72449812    -0.00200
C1278       C  0.57764989  0.50554818  0.75493929    -0.12400
C1279       C  0.60554332  0.98845811  0.78679610     0.02300
C1280       C  0.66083183  0.98973913  0.78667419    -0.11800
H1281       H  0.68209717  0.54418323  0.70360223     0.07900
H1282       H  0.53532581  0.50277813  0.75354038     0.05400
H1283       H  0.68277977  0.97523530  0.81018351     0.05200
C1284       C  0.59711390  0.79559335  0.89065709     0.85600
C1285       C  0.59943360  0.76413736  0.85769651    -0.54600
C1286       C  0.58222302  0.77917791  0.82243294     0.08600
C1287       C  0.55684166  0.82350062  0.82559097     0.19500
C1288       C  0.62541279  0.83299581  0.87464505    -0.55300
C1289       C  0.60106140  0.85227078  0.84340435     0.08700
C1290       C  0.54015180  0.80857001  0.89355210    -0.54900
C1291       C  0.51618105  0.81849513  0.85906183     0.09200
H1292       H  0.62092904  0.73511373  0.86043902     0.13700
H1293       H  0.53997965  0.83492338  0.79766811    -0.00500
H1294       H  0.65833249  0.84495444  0.89099095     0.14000
H1295       H  0.52001577  0.80727333  0.92146646     0.13800
C1296       C  0.59566294  0.71521801  0.61596200     0.85600
C1297       C  0.60815665  0.73557017  0.65463545    -0.54600
C1298       C  0.58569590  0.71579038  0.68620223     0.08600
C1299       C  0.55069240  0.67725120  0.67501590     0.19500
C1300       C  0.61216920  0.67007706  0.62129224    -0.55300
C1301       C  0.58780568  0.64884754  0.65101799     0.08700
C1302       C  0.53660399  0.71495916  0.61469500    -0.54900
C1303       C  0.51155546  0.69344336  0.64377209     0.09200
H1304       H  0.63586170  0.76107760  0.65736129     0.13700
H1305       H  0.53168775  0.66172280  0.70024925    -0.00500
H1306       H  0.63962265  0.65656466  0.60095022     0.14000
H1307       H  0.51682955  0.73184394  0.59157779     0.13800
C1308       C  0.69082123  0.73662169  0.75954467     0.02300
C1309       C  0.66357080  0.75880945  0.78799307    -0.13900
C1310       C  0.60840460  0.76197540  0.78706159    -0.00200
C1311       C  0.58078050  0.74539565  0.75485844    -0.12400
C1312       C  0.60859749  0.72409186  0.72522406     0.02300
C1313       C  0.66317795  0.71838327  0.72890312    -0.11800
H1314       H  0.68551551  0.77323305  0.81155606     0.07900
H1315       H  0.53870498  0.74956138  0.75257535     0.05400
H1316       H  0.68486606  0.70299577  0.70574971     0.05200
O1317       O  0.11262168  0.77293631  0.67842423    -0.73800
O1318       O  0.11496075  0.80865405  0.79133274    -0.74800
O1319       O  0.19379029  0.79579612  0.73302824    -0.63400
O1320       O  0.03527483  0.78598604  0.73781993    -0.71800
O1321       O  0.04271715  0.72092868  0.75846144    -0.71400
O1322       O  0.19988464  0.73037833  0.75326781    -0.62600
O1323       O  0.12248664  0.74341668  0.81181447    -0.75100
O1324       O  0.12049373  0.70833648  0.70011370    -0.73900
Cu1325     Cu  0.11442270  0.79326417  0.73447571     1.04600
Cu1326     Cu  0.12213782  0.72360130  0.75642895     1.04300
C1327       C  0.11417063  0.73389380  0.67185381     0.92400
C1328       C  0.11565143  0.78189153  0.81904040     0.91500
C1329       C  0.22147896  0.76421621  0.74242979     0.83700
C1330       C  0.01403480  0.75208303  0.74941853     0.90000
O1331       O  0.85673319  0.72904863  0.82311762    -0.73800
O1332       O  0.85545942  0.69311550  0.71027845    -0.74800
O1333       O  0.93466875  0.71519825  0.76417974    -0.63400
O1334       O  0.77582665  0.70650154  0.76810111    -0.71800
O1335       O  0.77033790  0.77199900  0.74801654    -0.71400
O1336       O  0.92763000  0.78018463  0.74325339    -0.62600
O1337       O  0.84796336  0.75837327  0.68982727    -0.75100
O1338       O  0.84981840  0.79366081  0.80118043    -0.73900
Cu1339     Cu  0.85535414  0.70850320  0.76713356     1.04600
Cu1340     Cu  0.84823217  0.77818301  0.74507211     1.04300
C1341       C  0.85563189  0.76814553  0.82949574     0.92400
C1342       C  0.85486161  0.71993814  0.68260112     0.91500
C1343       C  0.95611883  0.74897244  0.75245358     0.83700
C1344       C  0.74839765  0.73821607  0.75860902     0.90000
C1345       C  0.87489864  0.78616111  0.86749138     0.85600
C1346       C  0.86597265  0.76432556  0.90600138    -0.54600
C1347       C  0.88775486  0.78472344  0.93746592     0.08600
C1348       C  0.91964957  0.82480368  0.92601870     0.19500
C1349       C  0.85516809  0.83029223  0.87405780    -0.55300
C1350       C  0.87965676  0.85210909  0.90329846     0.08700
C1351       C  0.93363741  0.78934003  0.86452266    -0.54900
C1352       C  0.95859734  0.81056117  0.89372134     0.09200
H1353       H  0.83958301  0.73797458  0.90889708     0.12900
H1354       H  0.93876126  0.84050493  0.95110566    -0.00500
H1355       H  0.82590293  0.84297137  0.85462140     0.14000
H1356       H  0.95332993  0.77371481  0.84061331     0.13800
C1357       C  0.87210068  0.70637257  0.64262999     0.85600
C1358       C  0.86707790  0.73718158  0.60927852    -0.54600
C1359       C  0.88475633  0.72230814  0.57405481     0.08600
C1360       C  0.91177416  0.67866425  0.57719324     0.19500
C1361       C  0.84528904  0.66797722  0.62777938    -0.55300
C1362       C  0.86872264  0.64925329  0.59589579     0.08700
C1363       C  0.92965164  0.69523547  0.64470492    -0.54900
C1364       C  0.95307948  0.68533512  0.61001468     0.09200
H1365       H  0.84477001  0.76581648  0.61201219     0.13700
H1366       H  0.92833885  0.66725964  0.54916326    -0.00500
H1367       H  0.81377325  0.65542107  0.64519249     0.14000
H1368       H  0.95045631  0.69755295  0.67229334     0.13800
C1369       C  0.77942670  0.76463374  0.50835063     0.02300
C1370       C  0.80538414  0.74296647  0.53775141    -0.13900
C1371       C  0.86046478  0.73990246  0.53822036    -0.00200
C1372       C  0.88959232  0.75622541  0.50663254    -0.12400
C1373       C  0.86312747  0.77711003  0.97605690     0.02300
C1374       C  0.80834899  0.78268841  0.97827602    -0.11800
H1375       H  0.78243336  0.72871085  0.56087751     0.07900
H1376       H  0.93174848  0.75204635  0.50546992     0.05400
H1377       H  0.78764147  0.79775183  0.95444946     0.05200
C1378       C  0.87199888  0.96386808  0.86642032     0.85600
C1379       C  0.93075384  0.96040754  0.86307034    -0.54600
C1380       C  0.95624618  0.94038245  0.89281701     0.08600
C1381       C  0.91770424  0.92709298  0.92561109     0.19500
C1382       C  0.85226586  0.91999068  0.87439847    -0.55300
C1383       C  0.87787553  0.89892240  0.90372242     0.08700
C1384       C  0.86372841  0.98691047  0.90436631    -0.54900
C1385       C  0.88577335  0.96740621  0.93618394     0.09200
H1386       H  0.94988401  0.97519808  0.83849658     0.13700
H1387       H  0.93697936  0.91224696  0.95108339    -0.00500
H1388       H  0.82282751  0.90671968  0.85543794     0.14000
H1389       H  0.83744223  0.51337366  0.90675090     0.13800
C1390       C  0.87058032  0.54482460  0.64116602     0.85600
C1391       C  0.92735454  0.55829285  0.64469387    -0.54600
C1392       C  0.95186703  0.56839173  0.61050034     0.08600
C1393       C  0.91188956  0.57333649  0.57668027     0.19500
C1394       C  0.84190195  0.58188474  0.62463566    -0.55300
C1395       C  0.86715965  0.60178466  0.59409415     0.08700
C1396       C  0.86932007  0.51344347  0.60804720    -0.54900
C1397       C  0.88697864  0.52889046  0.57302013     0.09200
H1398       H  0.94704395  0.55702985  0.67277827     0.13700
H1399       H  0.92920435  0.58500592  0.54899811    -0.00500
H1400       H  0.80753795  0.59305129  0.63982776     0.14000
H1401       H  0.84777501  0.48439739  0.61035375     0.13800
C1402       C  0.77866044  0.48938784  0.00789489     0.02300
C1403       C  0.80673224  0.97129934  0.97739886    -0.13900
C1404       C  0.86159992  0.97603100  0.97473961    -0.00200
C1405       C  0.88910228  0.49611227  0.00521404    -0.12400
C1406       C  0.86102405  0.51246772  0.53727380     0.02300
C1407       C  0.80572583  0.51029656  0.53734266    -0.11800
H1408       H  0.78533606  0.95650131  0.95376048     0.07900
H1409       H  0.93135289  0.49949350  0.00372235     0.05400
H1410       H  0.78358281  0.52438080  0.56097401     0.05200
O1411       O  0.11162419  0.98044023  0.67966527    -0.73800
O1412       O  0.11371974  0.94526639  0.79239523    -0.74800
O1413       O  0.03403730  0.96711322  0.73862265    -0.63400
O1414       O  0.19266058  0.95828310  0.73454549    -0.71800
O1415       O  0.19823142  0.52362589  0.75503412    -0.71400
O1416       O  0.04017669  0.53236466  0.75892234    -0.62600
O1417       O  0.11974849  0.51055407  0.81306307    -0.75100
O1418       O  0.11882746  0.54519496  0.70116508    -0.73900
Cu1419     Cu  0.11328523  0.96040172  0.73564995     1.04600
Cu1420     Cu  0.11997996  0.53015370  0.75755729     1.04300
C1421       C  0.11282236  0.51945269  0.67301596     0.92400
C1422       C  0.11368852  0.97196740  0.82014987     0.91500
C1423       C  0.01205402  0.50086577  0.74979783     0.83700
C1424       C  0.22016994  0.48983505  0.74433599     0.90000
O1425       O  0.76858098  0.97614883  0.74579261    -0.73800
O1426       O  0.92645948  0.97143509  0.74267495    -0.74800
O1427       O  0.84795571  0.95560224  0.79978598    -0.63400
O1428       O  0.84711632  0.99206860  0.68814486    -0.71800
O1429       O  0.85181899  0.55737289  0.70881761    -0.71400
O1430       O  0.85262026  0.52036353  0.82166242    -0.62600
O1431       O  0.93124047  0.53655969  0.76352307    -0.75100
O1432       O  0.77222611  0.54163983  0.76613611    -0.73900
Cu1433     Cu  0.84691073  0.97165503  0.74353937     1.04600
Cu1434     Cu  0.85155787  0.54138405  0.76574047     1.04300
C1435       C  0.74570517  0.50952658  0.75648845     0.92400
C1436       C  0.95391654  0.50315870  0.75215012     0.91500
C1437       C  0.85255426  0.98125963  0.82813464     0.83700
C1438       C  0.85270698  0.53070588  0.68100204     0.90000
C1439       C  0.09816576  0.79560704  0.85894586     0.85600
C1440       C  0.04098498  0.80782928  0.85611879    -0.54600
C1441       C  0.01695649  0.81783958  0.89052952     0.08600
C1442       C  0.05752162  0.82333812  0.92397262     0.19500
C1443       C  0.12579260  0.83341384  0.87478439    -0.55300
C1444       C  0.10117824  0.85249181  0.90604943     0.08700
C1445       C  0.10125388  0.76433379  0.89199057    -0.54900
C1446       C  0.08372606  0.77931221  0.92719502     0.09200
H1447       H  0.02089976  0.80635374  0.82819362     0.13700
H1448       H  0.04053001  0.83463250  0.95189704    -0.00500
H1449       H  0.15855536  0.84560718  0.85841383     0.14000
H1450       H  0.12320195  0.73551608  0.88930151     0.13800
C1451       C  0.09519449  0.71600849  0.63359484     0.85600
C1452       C  0.03614552  0.71542404  0.63499335    -0.54600
C1453       C  0.01120916  0.69373963  0.60604320     0.08600
C1454       C  0.05048505  0.67759075  0.57478557     0.19500
C1455       C  0.11222397  0.67097676  0.62837027    -0.55300
C1456       C  0.08786909  0.64947952  0.59887505     0.08700
C1457       C  0.10749873  0.73629783  0.59486493    -0.54900
C1458       C  0.08532577  0.71619865  0.56337857     0.09200
H1459       H  0.01624523  0.73220072  0.65812820     0.13700
H1460       H  0.03155433  0.66189279  0.54962089    -0.00500
H1461       H  0.14008148  0.65771757  0.64856085     0.14000
H1462       H  0.13513456  0.76184206  0.59204382     0.13800
C1463       C  0.19152437  0.73657480  0.49062611     0.02300
C1464       C  0.16464685  0.75902835  0.96217251    -0.13900
C1465       C  0.10949259  0.76216362  0.96272533    -0.00200
C1466       C  0.08145265  0.74548825  0.49465900    -0.12400
C1467       C  0.10881784  0.72409325  0.52444176     0.02300
C1468       C  0.16347050  0.71826166  0.52107653    -0.11800
H1469       H  0.18686544  0.77356027  0.93880637     0.07900
H1470       H  0.03935833  0.74969373  0.49664859     0.05400
H1471       H  0.18484415  0.70277576  0.54432725     0.05200
C1472       C  0.09608453  0.95767561  0.85979084     0.85600
C1473       C  0.09817134  0.98826921  0.89350137    -0.54600
C1474       C  0.08030871  0.97225748  0.92825862     0.08600
C1475       C  0.05505713  0.92802022  0.92388274     0.19500
C1476       C  0.12417024  0.91985618  0.87502978    -0.55300
C1477       C  0.09983892  0.89994066  0.90590054     0.08700
C1478       C  0.03926259  0.94483840  0.85623955    -0.54900
C1479       C  0.01484696  0.93385069  0.89015832     0.09200
H1480       H  0.12008064  0.51718816  0.89166047     0.13700
H1481       H  0.03778419  0.91587502  0.95139237    -0.00500
H1482       H  0.15742499  0.90846848  0.85870405     0.14000
H1483       H  0.01986828  0.94638287  0.82807898     0.13800
C1484       C  0.09371264  0.53700023  0.63476846     0.85600
C1485       C  0.10394927  0.51511539  0.59651620    -0.54600
C1486       C  0.08227310  0.53495829  0.56473011     0.08600
C1487       C  0.04932809  0.57475871  0.57554959     0.19500
C1488       C  0.11272630  0.58127313  0.62811707    -0.55300
C1489       C  0.08810626  0.60268772  0.59867107     0.08700
C1490       C  0.03477510  0.53945151  0.63706513    -0.54900
C1491       C  0.01008143  0.56041224  0.60754521     0.09200
H1492       H  0.13052029  0.48883181  0.59409618     0.13700
H1493       H  0.03056234  0.59015044  0.55015346    -0.00500
H1494       H  0.14169955  0.59427520  0.64759897     0.14000
H1495       H  0.01483400  0.52403702  0.66097855     0.13800
C1496       C  0.18874851  0.51065618  0.49338286     0.02300
C1497       C  0.16099124  0.53004716  0.52333799    -0.13900
C1498       C  0.10604797  0.52603195  0.52605860    -0.00200
C1499       C  0.07826291  0.50563839  0.49587071    -0.12400
C1500       C  0.10617031  0.98806746  0.96426123     0.02300
C1501       C  0.16144657  0.98924362  0.96443834    -0.11800
H1502       H  0.18263995  0.54517232  0.54666654     0.07900
H1503       H  0.03593176  0.50294125  0.49725398     0.05400
H1504       H  0.18337971  0.97438173  0.94111438     0.05200
loop_ 
_geom_bond_atom_site_label_1 
_geom_bond_atom_site_label_2 
_geom_bond_distance 
_geom_bond_site_symmetry_2 
_ccdc_geom_bond_type 
O1           Cu9   2.022       .  S
O1           C11   1.278       .  A
O2           Cu9   1.997       .  S
O2          C388   1.275       .  A
O3         Cu385   1.992   1_554  S
O3           C13   1.280       .  A
O4           Cu9   2.001       .  S
O4           C14   1.275       .  A
O5         Cu386   2.007       .  S
O5           C14   1.281       .  A
O6          Cu10   2.028       .  S
O6           C13   1.278       .  A
O7          Cu10   2.024       .  S
O7           C12   1.278       .  A
O8          Cu10   2.031       .  S
O8          C387   1.281       .  A
Cu9         O379   1.992       .  S
Cu9        Cu386   2.373       .  S
Cu10        O381   2.007   1_554  S
Cu10       Cu385   2.373   1_554  S
C11         O384   1.281       .  A
C11          C27   1.481       .  S
C12         O378   1.275   1_554  A
C12         C241   1.466       .  S
C13         C168   1.512       .  S
C14         C156   1.503       .  S
O15        Cu399   1.999   1_554  S
O15          C25   1.280       .  A
O16         Cu23   2.023       .  S
O16          C26   1.277       .  A
O17         Cu23   2.035       .  S
O17          C27   1.281       .  A
O18         Cu23   2.028       .  S
O18         C404   1.279       .  A
O19         Cu24   1.995       .  S
O19          C28   1.275   1_554  A
O20         Cu24   2.022       .  S
O20         C403   1.278   1_554  A
O21        Cu400   1.986       .  S
O21          C26   1.280       .  A
O22         Cu24   1.995       .  S
O22          C25   1.275       .  A
Cu23        O391   2.000       .  S
Cu23       Cu400   2.374       .  S
Cu24        O397   1.986   1_554  S
Cu24       Cu399   2.374   1_554  S
C25          C41   1.499       .  S
C26          C29   1.505       .  S
C27         O396   1.278       .  A
C28         O394   1.279       .  A
C28         C335   1.469       .  S
C29          C30   1.505       .  S
C29          C35   1.511       .  S
C29          C33   1.522       .  S
C30          H37   1.083       .  S
C30          C31   1.366       .  D
C31          C32   1.553       .  S
C31         C163   1.510       .  S
C32          C36   1.576       .  S
C32          C34   1.554       .  S
C32          H38   1.108       .  S
C33          H39   1.079       .  S
C33          C34   1.371       .  D
C34          C67   1.505       .  S
C35          H40   1.087       .  S
C35          C36   1.378       .  D
C36          C57   1.483       .  S
C41          C42   1.507       .  S
C41          C47   1.515       .  S
C41          C45   1.501       .  S
C42          H49   1.084       .  S
C42          C43   1.365       .  D
C43          C44   1.557       .  S
C43         C175   1.510       .  S
C44          C48   1.570       .  S
C44          C46   1.584       .  S
C44          H50   1.110       .  S
C45          H51   1.078       .  S
C45          C46   1.383       .  D
C46          C79   1.532       .  S
C47          H52   1.087       .  S
C47          C48   1.371       .  D
C48          C55   1.487       .  S
C53         C201   1.467       .  S
C53          C54   1.391       .  A
C53          C58   1.393       .  A
C54          C55   1.407       .  A
C54          H59   1.085       .  S
C55          C56   1.412       .  A
C56          C57   1.415       .  A
C56          H60   1.083       .  S
C57          C58   1.410       .  A
C58          H61   1.085       .  S
C62         C119   1.505       .  S
C62          C63   1.509       .  S
C62          C68   1.505       .  S
C62          C66   1.524       .  S
C63          H70   1.087       .  S
C63          C64   1.375       .  D
C64          C65   1.572       .  S
C64          C88   1.481       .  S
C65          C69   1.552       .  S
C65          C67   1.550       .  S
C65          H71   1.108       .  S
C66          H72   1.079       .  S
C66          C67   1.375       .  D
C68          H73   1.082       .  S
C68          C69   1.368       .  D
C69         C125   1.509       .  S
C74         C120   1.502       .  S
C74          C75   1.515       .  S
C74          C80   1.514       .  S
C74          C78   1.510       .  S
C75          H82   1.087   1_545  S
C75          C76   1.372       .  D
C76          C77   1.574       .  S
C76          C90   1.487       .  S
C77          C81   1.549       .  S
C77          C79   1.580       .  S
C77          H83   1.110       .  S
C78          H84   1.080       .  S
C78          C79   1.382       .  D
C80          H85   1.084       .  S
C80          C81   1.363       .  D
C81         C137   1.508       .  S
C86        C1048   1.471       .  S
C86          C87   1.394       .  A
C86         C843   1.393       .  A
C87          C88   1.410       .  A
C87          H92   1.085       .  S
C88          C89   1.411       .  A
C89         C842   1.410       .  A
C89          H93   1.083       .  S
C90          C91   1.410       .  A
C90         C841   1.410   1_545  A
C91         C838   1.393   1_545  A
C91          H94   1.085       .  S
O95        Cu479   1.985   1_554  S
O95         C105   1.279       .  A
O96        Cu103   2.002       .  S
O96         C858   1.275   1_545  A
O97        Cu103   2.031       .  S
O97         C483   1.280   1_545  A
O98        Cu103   2.006       .  S
O98         C484   1.276   1_545  A
O99        Cu104   2.025       .  S
O99         C860   1.279       .  A
O100       Cu104   2.037       .  S
O100        C859   1.281       .  A
O101       Cu480   2.007       .  S
O101        C106   1.281       .  A
O102       Cu104   2.022       .  S
O102        C857   1.277       .  A
Cu103       O471   1.985       .  S
Cu103     Cu1232   2.373   1_545  S
Cu104       O477   2.007   1_554  S
Cu104     Cu1231   2.373   1_554  S
C105        O854   1.277   1_545  A
C105        C135   1.505       .  S
C106        O848   1.275       .  A
C106        C123   1.503       .  S
C107        O473   1.280   1_564  A
C107        O852   1.281       .  A
C107        C121   1.486   1_564  S
C108        O474   1.276   1_564  A
C108        O851   1.279       .  A
C108        C650   1.471       .  S
O109       Cu117   2.024       .  S
O109        C871   1.278   1_545  A
O110       Cu493   2.007   1_554  S
O110        C120   1.281       .  A
O111       Cu117   2.036       .  S
O111        C497   1.281       .  A
O112       Cu117   2.019       .  S
O112        C498   1.278       .  A
O113       Cu118   2.004       .  S
O113        C874   1.276   1_554  A
O114       Cu118   2.032       .  S
O114        C873   1.280   1_554  A
O115       Cu118   2.000       .  S
O115        C872   1.275       .  A
O116       Cu494   1.985       .  S
O116        C119   1.278       .  A
Cu117       O486   2.007       .  S
Cu117     Cu1246   2.373   1_545  S
Cu118       O492   1.985   1_554  S
Cu118     Cu1245   2.373   1_554  S
C119        O861   1.278       .  A
C120        O867   1.275   1_545  A
C121        O487   1.281       .  A
C121        O866   1.280   1_546  A
C122        O488   1.278       .  A
C122        O865   1.276   1_546  A
C122        C368   1.468       .  S
C123        C124   1.513       .  S
C123        C129   1.519       .  S
C123        C127   1.507       .  S
C124        H131   1.084       .  S
C124        C125   1.364       .  D
C125        C126   1.552       .  S
C126        C130   1.568       .  S
C126        C128   1.579       .  S
C126        H132   1.110       .  S
C127        H133   1.079       .  S
C127        C128   1.383       .  D
C128        C161   1.528       .  S
C129        H134   1.087       .  S
C129        C130   1.373       .  D
C130        C151   1.486       .  S
C135        C136   1.506       .  S
C135        C141   1.508       .  S
C135        C139   1.521       .  S
C136        H143   1.082       .  S
C136        C137   1.368       .  D
C137        C138   1.552       .  S
C138        C142   1.576       .  S
C138        C140   1.555       .  S
C138        H144   1.108       .  S
C139        H145   1.079       .  S
C139        C140   1.371       .  D
C140        C173   1.508       .  S
C141        H146   1.087   1_545  S
C141        C142   1.377       .  D
C142        C149   1.482       .  S
C147        C307   1.468       .  S
C147        C148   1.391       .  A
C147        C904   1.392   1_545  A
C148        C149   1.408       .  A
C148        H153   1.085       .  S
C149        C150   1.413       .  A
C150        C903   1.412   1_545  A
C150        H154   1.083       .  S
C151        C152   1.409       .  A
C151        C902   1.412       .  A
C152        C899   1.392       .  A
C152        H155   1.085       .  S
C156        C157   1.516       .  S
C156        C162   1.514       .  S
C156        C160   1.506       .  S
C157        H164   1.087       .  S
C157        C158   1.371       .  D
C158        C159   1.570       .  S
C158        C182   1.488       .  S
C159        C163   1.552       .  S
C159        C161   1.580       .  S
C159        H165   1.110       .  S
C160        H166   1.079       .  S
C160        C161   1.382       .  D
C162        H167   1.084       .  S
C162        C163   1.366       .  D
C168        C169   1.510       .  S
C168        C174   1.505       .  S
C168        C172   1.524       .  S
C169        H176   1.087       .  S
C169        C170   1.378       .  D
C170        C171   1.575       .  S
C170        C184   1.481       .  S
C171        C175   1.552       .  S
C171        C173   1.550       .  S
C171        H177   1.108       .  S
C172        H178   1.078       .  S
C172        C173   1.373       .  D
C174        H179   1.084       .  S
C174        C175   1.369       .  D
C180        C216   1.468       .  S
C180        C181   1.392       .  A
C180        C185   1.392       .  A
C181        C182   1.410       .  A
C181        H186   1.085       .  S
C182        C183   1.412       .  A
C183        C184   1.414       .  A
C183        H187   1.083       .  S
C184        C185   1.408       .  A
C185        H188   1.085       .  S
O189       Cu197   2.026       .  S
O189        C199   1.277       .  A
O190       Cu197   2.006       .  S
O190        C200   1.281       .  A
O191       Cu197   2.024       .  S
O191        C201   1.279       .  A
O192       Cu197   2.033       .  S
O192        C202   1.281       .  A
O193       Cu198   2.027       .  S
O193        C202   1.279       .  A
O194       Cu198   1.996       .  S
O194        C201   1.275       .  A
O195       Cu198   1.998       .  S
O195        C200   1.275       .  A
O196       Cu198   1.988       .  S
O196        C199   1.279       .  A
Cu197      Cu198   2.373       .  S
C199        C323   1.509       .  S
C200        C311   1.502       .  S
C202        C215   1.483   1_455  S
O203       Cu211   2.026       .  S
O203        C213   1.278       .  A
O204       Cu211   2.006       .  S
O204        C214   1.281       .  A
O205       Cu211   2.035       .  S
O205        C215   1.281       .  A
O206       Cu211   2.028       .  S
O206        C216   1.279       .  A
O207       Cu212   1.997       .  S
O207        C216   1.275       .  A
O208       Cu212   2.025       .  S
O208        C215   1.279       .  A
O209       Cu212   1.994       .  S
O209        C214   1.274       .  A
O210       Cu212   1.983       .  S
O210        C213   1.278       .  A
Cu211      Cu212   2.373       .  S
C213        C217   1.505       .  S
C214        C229   1.501       .  S
C217        C218   1.510       .  S
C217        C223   1.504       .  S
C217        C221   1.524       .  S
C218        H225   1.087       .  S
C218        C219   1.377       .  D
C219        C220   1.574       .  S
C219        C245   1.482       .  S
C220        C224   1.554       .  S
C220        C222   1.554       .  S
C220        H226   1.108       .  S
C221        H227   1.079       .  S
C221        C222   1.372       .  D
C222        C255   1.508       .  S
C223        H228   1.083       .  S
C223        C224   1.367       .  D
C224        C313   1.509   1_655  S
C229        C230   1.517       .  S
C229        C235   1.511       .  S
C229        C233   1.501       .  S
C230        H237   1.087       .  S
C230        C231   1.372       .  D
C231        C232   1.568       .  S
C231        C243   1.485       .  S
C232        C236   1.553       .  S
C232        C234   1.584       .  S
C232        H238   1.110       .  S
C233        H239   1.078       .  S
C233        C234   1.381       .  D
C234        C267   1.530       .  S
C235        H240   1.085       .  S
C235        C236   1.366       .  D
C236        C325   1.512   1_655  S
C241        C242   1.391       .  A
C241        C622   1.392   1_554  A
C242        C243   1.407       .  A
C242        H247   1.085       .  S
C243        C244   1.412       .  A
C244        C621   1.414   1_554  A
C244        H248   1.083       .  S
C245        C246   1.409       .  A
C245        C620   1.414       .  A
C246        C617   1.392       .  A
C246        H249   1.085       .  S
C250        C309   1.508       .  S
C250        C251   1.506       .  S
C250        C256   1.509       .  S
C250        C254   1.524       .  S
C251        H258   1.082       .  S
C251        C252   1.368       .  D
C252        C253   1.551       .  S
C252        C351   1.511   1_655  S
C253        C257   1.574       .  S
C253        C255   1.553       .  S
C253        H259   1.108       .  S
C254        H260   1.080       .  S
C254        C255   1.375       .  D
C256       H1013   1.087       .  S
C256        C257   1.376       .  D
C257        C276   1.481       .  S
H261       C1008   1.087   1_545  S
C262        C310   1.506       .  S
C262        C263   1.515       .  S
C262        C268   1.518       .  S
C262        C266   1.509       .  S
C263        H270   1.084       .  S
C263        C264   1.365       .  D
C264        C265   1.549       .  S
C264        C363   1.509   1_655  S
C265        C269   1.570       .  S
C265        C267   1.579       .  S
C265        H271   1.110       .  S
C266        H272   1.080       .  S
C266        C267   1.384       .  D
C268        H273   1.087   1_545  S
C268        C269   1.373       .  D
C269        C278   1.487       .  S
C274        C484   1.471       .  S
C274       C1027   1.392       .  A
C274        C655   1.394   1_565  A
C275        C276   1.409       .  A
C275       C1026   1.392       .  A
C275        H280   1.085       .  S
C276       C1029   1.412       .  A
C277       C1028   1.412       .  A
C277        C654   1.411   1_565  A
C277        H281   1.083       .  S
C278        C279   1.411       .  A
C278        C653   1.411   1_545  A
C279        C650   1.394   1_545  A
C279        H282   1.085       .  S
O283       Cu291   2.021       .  S
O283       C1045   1.277       .  A
O284       Cu291   2.001       .  S
O284        C294   1.280       .  A
O285       Cu291   2.033       .  S
O285       C1047   1.281       .  A
O286       Cu291   2.024       .  S
O286       C1048   1.279       .  A
O287       Cu292   2.007       .  S
O287        C296   1.277   1_545  A
O288       Cu292   2.035       .  S
O288        C295   1.280       .  A
O289       Cu292   2.000       .  S
O289       C1046   1.275   1_545  A
O290       Cu292   1.988       .  S
O290        C293   1.279       .  A
Cu291     Cu1044   2.373       .  S
Cu292     Cu1043   2.373   1_545  S
C293       O1035   1.277   1_545  A
C293        C356   1.506       .  S
C294       O1041   1.275       .  A
C294        C344   1.500       .  S
C295       O1037   1.281   1_545  A
C295        C308   1.485   1_455  S
C296       O1038   1.279       .  A
C296        C838   1.471       .  S
O297       Cu305   2.003       .  S
O297       C1059   1.276       .  A
O298       Cu305   2.027       .  S
O298       C1060   1.280       .  A
O299       Cu305   1.992       .  S
O299        C309   1.279       .  A
O300       Cu305   2.005       .  S
O300       C1062   1.276       .  A
O301       Cu306   2.013       .  S
O301        C310   1.281       .  A
O302       Cu306   2.029       .  S
O302       C1061   1.278   1_545  A
O303       Cu306   2.038       .  S
O303        C308   1.281       .  A
O304       Cu306   2.021       .  S
O304        C307   1.278       .  A
Cu305     Cu1058   2.372       .  S
Cu306     Cu1057   2.372   1_545  S
C307       O1049   1.276   1_545  A
C308       O1050   1.280   1_545  A
C309       O1054   1.278       .  A
C310       O1052   1.276   1_545  A
C311        C312   1.512       .  S
C311        C317   1.515       .  S
C311        C315   1.507       .  S
C312        H319   1.084       .  S
C312        C313   1.365       .  D
C313        C314   1.552       .  S
C314        C318   1.571       .  S
C314        C316   1.579       .  S
C314        H320   1.110       .  S
C315        H321   1.079       .  S
C315        C316   1.383       .  D
C316        C349   1.528       .  S
C317        H322   1.087       .  S
C317        C318   1.371       .  D
C318        C337   1.487       .  S
C323        C324   1.505       .  S
C323        C329   1.509       .  S
C323        C327   1.524       .  S
C324        H331   1.084       .  S
C324        C325   1.368       .  D
C325        C326   1.554       .  S
C326        C330   1.576       .  S
C326        C328   1.551       .  S
C326        H332   1.108       .  S
C327        H333   1.078       .  S
C327        C328   1.371       .  D
C328        C361   1.506       .  S
C329        H334   1.087       .  S
C329        C330   1.377       .  D
C330        C339   1.482       .  S
C335        C340   1.394   1_556  A
C335        C712   1.392       .  A
C336        C337   1.409       .  A
C336        C711   1.392       .  A
C336        H341   1.085       .  S
C337        C714   1.411       .  A
C338        C339   1.413   1_556  A
C338        C713   1.411       .  A
C338        H342   1.083       .  S
C339        C340   1.410       .  A
C340        H343   1.085       .  S
C344        C345   1.517       .  S
C344        C350   1.510       .  S
C344        C348   1.505       .  S
C345       H1104   1.087       .  S
C345        C346   1.373       .  D
C346        C347   1.570       .  S
C346        C372   1.486       .  S
C347        C351   1.554       .  S
C347        C349   1.580       .  S
C347        H353   1.110       .  S
C348        H354   1.079       .  S
C348        C349   1.382       .  D
C350        H355   1.083       .  S
C350        C351   1.363       .  D
H352       C1097   1.087   1_545  S
C356        C357   1.508       .  S
C356        C362   1.506       .  S
C356        C360   1.522       .  S
C357        H364   1.087   1_545  S
C357        C358   1.376       .  D
C358        C359   1.576       .  S
C358        C370   1.483       .  S
C359        C363   1.552       .  S
C359        C361   1.552       .  S
C359        H365   1.108       .  S
C360        H366   1.079       .  S
C360        C361   1.372       .  D
C362        H367   1.083       .  S
C362        C363   1.368       .  D
C368        C369   1.392   1_556  A
C368       C1501   1.392   1_545  A
C369        C370   1.409       .  A
C369        H374   1.085       .  S
C370        C371   1.413   1_554  A
C371       C1500   1.412   1_545  A
C371        H375   1.083       .  S
C372        C373   1.409       .  A
C372       C1499   1.412       .  A
C373       C1496   1.392       .  A
C373        H376   1.085       .  S
O377       Cu385   2.022       .  S
O377        C387   1.278   1_556  A
O378       Cu385   1.997       .  S
O379        C389   1.280       .  A
O380       Cu385   2.001       .  S
O380        C390   1.275       .  A
O381        C390   1.281       .  A
O382       Cu386   2.028       .  S
O382        C389   1.278       .  A
O383       Cu386   2.024       .  S
O383        C388   1.278       .  A
O384       Cu386   2.031       .  S
C387        C403   1.481   1_554  S
C388        C617   1.466       .  S
C389        C544   1.512       .  S
C390        C532   1.503       .  S
O391        C401   1.280       .  A
O392       Cu399   2.023       .  S
O392        C402   1.277       .  A
O393       Cu399   2.035       .  S
O393        C403   1.281       .  A
O394       Cu399   2.028       .  S
O395       Cu400   1.995       .  S
O395        C404   1.275       .  A
O396       Cu400   2.021       .  S
O397        C402   1.280       .  A
O398       Cu400   1.995       .  S
O398        C401   1.275       .  A
C401        C417   1.499       .  S
C402        C405   1.505       .  S
C404        C711   1.469       .  S
C405        C406   1.505       .  S
C405        C411   1.511       .  S
C405        C409   1.522       .  S
C406        H413   1.083       .  S
C406        C407   1.366       .  D
C407        C408   1.553       .  S
C407        C539   1.510       .  S
C408        C412   1.576       .  S
C408        C410   1.554       .  S
C408        H414   1.108       .  S
C409        H415   1.079       .  S
C409        C410   1.371       .  D
C410        C443   1.505       .  S
C411        H416   1.087       .  S
C411        C412   1.378       .  D
C412        C433   1.483       .  S
C417        C418   1.507       .  S
C417        C423   1.515       .  S
C417        C421   1.501       .  S
C418        H425   1.084       .  S
C418        C419   1.365       .  D
C419        C420   1.557       .  S
C419        C551   1.510       .  S
C420        C424   1.570       .  S
C420        C422   1.584       .  S
C420        H426   1.110       .  S
C421        H427   1.078       .  S
C421        C422   1.383       .  D
C422        C455   1.532       .  S
C423        H428   1.087       .  S
C423        C424   1.371       .  D
C424        C431   1.487       .  S
C429        C577   1.467       .  S
C429        C430   1.391       .  A
C429        C434   1.393       .  A
C430        C431   1.407       .  A
C430        H435   1.085       .  S
C431        C432   1.412       .  A
C432        C433   1.415       .  A
C432        H436   1.083       .  S
C433        C434   1.410       .  A
C434        H437   1.085       .  S
C438        C495   1.505       .  S
C438        C439   1.509       .  S
C438        C444   1.505       .  S
C438        C442   1.524       .  S
C439        H446   1.087       .  S
C439        C440   1.375       .  D
C440        C441   1.572       .  S
C440        C464   1.481       .  S
C441        C445   1.552       .  S
C441        C443   1.550       .  S
C441        H447   1.108       .  S
C442        H448   1.079       .  S
C442        C443   1.375       .  D
C444        H449   1.082       .  S
C444        C445   1.368       .  D
C445        C501   1.509       .  S
C450        C496   1.502       .  S
C450        C451   1.515       .  S
C450        C456   1.514       .  S
C450        C454   1.510       .  S
C451        H458   1.087   1_545  S
C451        C452   1.372       .  D
C452        C453   1.574       .  S
C452        C466   1.487       .  S
C453        C457   1.549       .  S
C453        C455   1.580       .  S
C453        H459   1.110       .  S
C454        H460   1.080       .  S
C454        C455   1.382       .  D
C456        H461   1.084       .  S
C456        C457   1.363       .  D
C457        C513   1.508       .  S
C462       C1424   1.471       .  S
C462        C463   1.394       .  A
C462       C1219   1.393       .  A
C463        C464   1.410       .  A
C463        H468   1.085       .  S
C464        C465   1.411       .  A
C465       C1218   1.410       .  A
C465        H469   1.083       .  S
C466       C1217   1.410   1_545  A
C466        C467   1.410       .  A
C467       C1214   1.393   1_545  A
C467        H470   1.085       .  S
O471        C481   1.279       .  A
O472       Cu479   2.002       .  S
O472       C1234   1.275   1_545  A
O473       Cu479   2.031       .  S
O474       Cu479   2.006       .  S
O475       Cu480   2.025       .  S
O475       C1236   1.279       .  A
O476       Cu480   2.037       .  S
O476       C1235   1.281       .  A
O477        C482   1.281       .  A
O478       Cu480   2.022       .  S
O478       C1233   1.277       .  A
Cu479      Cu856   2.373   1_546  S
Cu480      Cu855   2.373       .  S
C481       O1230   1.277   1_545  A
C481        C511   1.505       .  S
C482       O1224   1.275       .  A
C482        C499   1.503       .  S
C483       O1228   1.281       .  A
C483        C497   1.486   1_565  S
C484       O1227   1.279       .  A
O485       Cu493   2.024       .  S
O485       C1247   1.278   1_545  A
O486        C496   1.281       .  A
O487       Cu493   2.036       .  S
O488       Cu493   2.019       .  S
O489       Cu494   2.004       .  S
O489       C1250   1.276       .  A
O490       Cu494   2.032       .  S
O490       C1249   1.280       .  A
O491       Cu494   2.000       .  S
O491       C1248   1.275       .  A
O492        C495   1.278       .  A
Cu493      Cu870   2.373   1_546  S
Cu494      Cu869   2.373       .  S
C495       O1237   1.278       .  A
C496       O1243   1.275   1_545  A
C497       O1242   1.280   1_545  A
C498       O1241   1.276   1_545  A
C498        C744   1.468       .  S
C499        C500   1.513       .  S
C499        C505   1.519       .  S
C499        C503   1.507       .  S
C500        H507   1.084       .  S
C500        C501   1.364       .  D
C501        C502   1.552       .  S
C502        C506   1.568       .  S
C502        C504   1.579       .  S
C502        H508   1.110       .  S
C503        H509   1.079       .  S
C503        C504   1.383       .  D
C504        C537   1.528       .  S
C505        H510   1.087       .  S
C505        C506   1.373       .  D
C506        C527   1.486       .  S
C511        C512   1.506       .  S
C511        C517   1.508       .  S
C511        C515   1.521       .  S
C512        H519   1.082       .  S
C512        C513   1.368       .  D
C513        C514   1.552       .  S
C514        C518   1.576       .  S
C514        C516   1.555       .  S
C514        H520   1.108       .  S
C515        H521   1.079       .  S
C515        C516   1.371       .  D
C516        C549   1.508       .  S
C517        H522   1.087   1_545  S
C517        C518   1.377       .  D
C518        C525   1.482       .  S
C523        C683   1.468       .  S
C523        C524   1.391       .  A
C523       C1280   1.392   1_545  A
C524        C525   1.408       .  A
C524        H529   1.085       .  S
C525        C526   1.413       .  A
C526       C1279   1.412   1_545  A
C526        H530   1.083       .  S
C527       C1278   1.412       .  A
C527        C528   1.409       .  A
C528       C1275   1.392       .  A
C528        H531   1.085       .  S
C532        C533   1.516       .  S
C532        C538   1.514       .  S
C532        C536   1.506       .  S
C533        H540   1.087       .  S
C533        C534   1.371       .  D
C534        C535   1.570       .  S
C534        C558   1.488       .  S
C535        C539   1.552       .  S
C535        C537   1.580       .  S
C535        H541   1.110       .  S
C536        H542   1.079       .  S
C536        C537   1.382       .  D
C538        H543   1.084       .  S
C538        C539   1.366       .  D
C544        C545   1.510       .  S
C544        C550   1.505       .  S
C544        C548   1.524       .  S
C545        H552   1.087       .  S
C545        C546   1.378       .  D
C546        C547   1.575       .  S
C546        C560   1.481       .  S
C547        C551   1.552       .  S
C547        C549   1.550       .  S
C547        H553   1.108       .  S
C548        H554   1.078       .  S
C548        C549   1.373       .  D
C550        H555   1.084       .  S
C550        C551   1.369       .  D
C556        C592   1.468       .  S
C556        C557   1.392       .  A
C556        C561   1.392       .  A
C557        C558   1.410       .  A
C557        H562   1.085       .  S
C558        C559   1.412       .  A
C559        C560   1.414       .  A
C559        H563   1.083       .  S
C560        C561   1.408       .  A
C561        H564   1.085       .  S
O565       Cu573   2.026       .  S
O565        C575   1.277       .  A
O566       Cu573   2.006       .  S
O566        C576   1.281       .  A
O567       Cu573   2.025       .  S
O567        C577   1.279       .  A
O568       Cu573   2.033       .  S
O568        C578   1.281       .  A
O569       Cu574   2.027       .  S
O569        C578   1.279       .  A
O570       Cu574   1.996       .  S
O570        C577   1.275       .  A
O571       Cu574   1.998       .  S
O571        C576   1.275       .  A
O572       Cu574   1.988       .  S
O572        C575   1.279       .  A
Cu573      Cu574   2.373       .  S
C575        C699   1.509       .  S
C576        C687   1.502       .  S
C578        C591   1.483   1_455  S
O579       Cu587   2.026       .  S
O579        C589   1.278       .  A
O580       Cu587   2.006       .  S
O580        C590   1.281       .  A
O581       Cu587   2.035       .  S
O581        C591   1.281       .  A
O582       Cu587   2.028       .  S
O582        C592   1.279       .  A
O583       Cu588   1.997       .  S
O583        C592   1.275       .  A
O584       Cu588   2.025       .  S
O584        C591   1.279       .  A
O585       Cu588   1.994       .  S
O585        C590   1.274       .  A
O586       Cu588   1.983       .  S
O586        C589   1.278       .  A
Cu587      Cu588   2.373       .  S
C589        C593   1.505       .  S
C590        C605   1.501       .  S
C593        C594   1.510       .  S
C593        C599   1.504       .  S
C593        C597   1.524       .  S
C594        H601   1.087       .  S
C594        C595   1.377       .  D
C595        C596   1.574       .  S
C595        C621   1.482       .  S
C596        C600   1.554       .  S
C596        C598   1.554       .  S
C596        H602   1.108       .  S
C597        H603   1.079       .  S
C597        C598   1.372       .  D
C598        C631   1.508       .  S
C599        H604   1.083       .  S
C599        C600   1.367       .  D
C600        C689   1.509   1_655  S
C605        C606   1.517       .  S
C605        C611   1.511       .  S
C605        C609   1.501       .  S
C606        H613   1.087       .  S
C606        C607   1.372       .  D
C607        C608   1.568       .  S
C607        C619   1.485       .  S
C608        C612   1.553       .  S
C608        C610   1.584       .  S
C608        H614   1.110       .  S
C609        H615   1.078       .  S
C609        C610   1.381       .  D
C610        C643   1.530       .  S
C611        H616   1.085       .  S
C611        C612   1.366       .  D
C612        C701   1.512   1_655  S
C617        C618   1.391       .  A
C618        C619   1.407       .  A
C618        H623   1.085       .  S
C619        C620   1.412       .  A
C620        H624   1.083       .  S
C621        C622   1.409       .  A
C622        H625   1.085       .  S
C626        C685   1.508       .  S
C626        C627   1.506       .  S
C626        C632   1.509       .  S
C626        C630   1.524       .  S
C627        H634   1.082       .  S
C627        C628   1.368       .  D
C628        C629   1.551       .  S
C628        C727   1.511   1_655  S
C629        C633   1.574       .  S
C629        C631   1.553       .  S
C629        H635   1.108       .  S
C630        H636   1.080       .  S
C630        C631   1.375       .  D
C632       H1389   1.087       .  S
C632        C633   1.376       .  D
C633        C652   1.481       .  S
H637       C1384   1.087   1_545  S
C638        C686   1.506       .  S
C638        C639   1.515       .  S
C638        C644   1.518       .  S
C638        C642   1.509       .  S
C639        H646   1.084       .  S
C639        C640   1.365       .  D
C640        C641   1.549       .  S
C640        C739   1.509   1_655  S
C641        C645   1.570       .  S
C641        C643   1.579       .  S
C641        H647   1.110       .  S
C642        H648   1.080       .  S
C642        C643   1.384       .  D
C644        H649   1.087   1_545  S
C644        C645   1.373       .  D
C645        C654   1.487       .  S
C650       C1403   1.392   1_554  A
C651       C1402   1.392   1_556  A
C651        C652   1.409       .  A
C651        H656   1.085       .  S
C652       C1405   1.412   1_556  A
C653       C1404   1.412   1_554  A
C653        H657   1.083       .  S
C654        C655   1.411       .  A
C655        H658   1.085       .  S
O659       Cu667   2.021       .  S
O659       C1421   1.277       .  A
O660       Cu667   2.001       .  S
O660        C670   1.280       .  A
O661       Cu667   2.033       .  S
O661       C1423   1.281       .  A
O662       Cu667   2.024       .  S
O662       C1424   1.279       .  A
O663       Cu668   2.007       .  S
O663        C672   1.277   1_545  A
O664       Cu668   2.035       .  S
O664        C671   1.280       .  A
O665       Cu668   2.000       .  S
O665       C1422   1.275   1_545  A
O666       Cu668   1.988       .  S
O666        C669   1.279       .  A
Cu667     Cu1420   2.373       .  S
Cu668     Cu1419   2.373   1_545  S
C669       O1411   1.277   1_545  A
C669        C732   1.506       .  S
C670       O1417   1.275       .  A
C670        C720   1.500       .  S
C671       O1413   1.281   1_545  A
C671        C684   1.485   1_455  S
C672       O1414   1.279       .  A
C672       C1214   1.471       .  S
O673       Cu681   2.003       .  S
O673       C1435   1.276       .  A
O674       Cu681   2.027       .  S
O674       C1436   1.280       .  A
O675       Cu681   1.992       .  S
O675        C685   1.279       .  A
O676       Cu681   2.005       .  S
O676       C1438   1.276       .  A
O677       Cu682   2.013       .  S
O677        C686   1.281       .  A
O678       Cu682   2.029       .  S
O678       C1437   1.278   1_545  A
O679       Cu682   2.038       .  S
O679        C684   1.281       .  A
O680       Cu682   2.021       .  S
O680        C683   1.278       .  A
Cu681     Cu1434   2.372       .  S
Cu682     Cu1433   2.372   1_545  S
C683       O1425   1.276   1_545  A
C684       O1426   1.280   1_545  A
C685       O1430   1.278       .  A
C686       O1428   1.276   1_545  A
C687        C688   1.512       .  S
C687        C693   1.515       .  S
C687        C691   1.507       .  S
C688        H695   1.084       .  S
C688        C689   1.365       .  D
C689        C690   1.552       .  S
C690        C694   1.571       .  S
C690        C692   1.579       .  S
C690        H696   1.110       .  S
C691        H697   1.079       .  S
C691        C692   1.383       .  D
C692        C725   1.528       .  S
C693        H698   1.087       .  S
C693        C694   1.371       .  D
C694        C713   1.487       .  S
C699        C700   1.505       .  S
C699        C705   1.509       .  S
C699        C703   1.524       .  S
C700        H707   1.084       .  S
C700        C701   1.368       .  D
C701        C702   1.554       .  S
C702        C706   1.576       .  S
C702        C704   1.551       .  S
C702        H708   1.108       .  S
C703        H709   1.078       .  S
C703        C704   1.371       .  D
C704        C737   1.506       .  S
C705        H710   1.087       .  S
C705        C706   1.377       .  D
C706        C715   1.482       .  S
C711        C716   1.394       .  A
C712        C713   1.409       .  A
C712        H717   1.085       .  S
C714        C715   1.413       .  A
C714        H718   1.083       .  S
C715        C716   1.410       .  A
C716        H719   1.085       .  S
C720        C721   1.517       .  S
C720        C726   1.510       .  S
C720        C724   1.505       .  S
C721       H1480   1.087       .  S
C721        C722   1.373       .  D
C722        C723   1.570       .  S
C722        C748   1.486       .  S
C723        C727   1.554       .  S
C723        C725   1.580       .  S
C723        H729   1.110       .  S
C724        H730   1.079       .  S
C724        C725   1.382       .  D
C726        H731   1.083       .  S
C726        C727   1.363       .  D
H728       C1473   1.087   1_545  S
C732        C733   1.508       .  S
C732        C738   1.506       .  S
C732        C736   1.522       .  S
C733        H740   1.087   1_545  S
C733        C734   1.376       .  D
C734        C735   1.576       .  S
C734        C746   1.483       .  S
C735        C739   1.552       .  S
C735        C737   1.552       .  S
C735        H741   1.108       .  S
C736        H742   1.079       .  S
C736        C737   1.372       .  D
C738        H743   1.083       .  S
C738        C739   1.368       .  D
C744        C745   1.392       .  A
C744       C1125   1.392   1_545  A
C745        C746   1.409       .  A
C745        H750   1.085       .  S
C746        C747   1.413       .  A
C747       C1124   1.412   1_545  A
C747        H751   1.083       .  S
C748       C1123   1.412       .  A
C748        C749   1.409       .  A
C749       C1120   1.392       .  A
C749        H752   1.085       .  S
O753       Cu761   2.022       .  S
O753        C763   1.278       .  A
O754       Cu761   1.997       .  S
O754       C1140   1.275       .  A
O755      Cu1137   1.992   1_554  S
O755        C765   1.280       .  A
O756       Cu761   2.001       .  S
O756        C766   1.275       .  A
O757      Cu1138   2.007       .  S
O757        C766   1.281       .  A
O758       Cu762   2.028       .  S
O758        C765   1.278       .  A
O759       Cu762   2.024       .  S
O759        C764   1.278       .  A
O760       Cu762   2.031       .  S
O760       C1139   1.281       .  A
Cu761      O1131   1.992       .  S
Cu761     Cu1138   2.373       .  S
Cu762      O1133   2.007   1_554  S
Cu762     Cu1137   2.373   1_554  S
C763       O1136   1.281       .  A
C763        C779   1.481       .  S
C764       O1130   1.275   1_554  A
C764        C993   1.466       .  S
C765        C920   1.512       .  S
C766        C908   1.503       .  S
O767      Cu1151   2.000   1_554  S
O767        C777   1.280       .  A
O768       Cu775   2.023       .  S
O768        C778   1.277       .  A
O769       Cu775   2.035       .  S
O769        C779   1.281       .  A
O770       Cu775   2.028       .  S
O770       C1156   1.279       .  A
O771       Cu776   1.995       .  S
O771        C780   1.275   1_554  A
O772       Cu776   2.022       .  S
O772       C1155   1.278   1_554  A
O773      Cu1152   1.986       .  S
O773        C778   1.280       .  A
O774       Cu776   1.995       .  S
O774        C777   1.275       .  A
Cu775      O1143   1.999       .  S
Cu775     Cu1152   2.374       .  S
Cu776      O1149   1.986   1_554  S
Cu776     Cu1151   2.374   1_554  S
C777        C793   1.499       .  S
C778        C781   1.505       .  S
C779       O1148   1.278       .  A
C780       O1146   1.279       .  A
C780       C1087   1.469       .  S
C781        C782   1.505       .  S
C781        C787   1.511       .  S
C781        C785   1.522       .  S
C782        H789   1.083       .  S
C782        C783   1.366       .  D
C783        C784   1.553       .  S
C783        C915   1.510       .  S
C784        C788   1.576       .  S
C784        C786   1.554       .  S
C784        H790   1.108       .  S
C785        H791   1.079       .  S
C785        C786   1.371       .  D
C786        C819   1.505       .  S
C787        H792   1.087       .  S
C787        C788   1.378       .  D
C788        C809   1.483       .  S
C793        C794   1.507       .  S
C793        C799   1.515       .  S
C793        C797   1.501       .  S
C794        H801   1.084       .  S
C794        C795   1.365       .  D
C795        C796   1.557       .  S
C795        C927   1.510       .  S
C796        C800   1.570       .  S
C796        C798   1.584       .  S
C796        H802   1.110       .  S
C797        H803   1.078       .  S
C797        C798   1.383       .  D
C798        C831   1.532       .  S
C799        H804   1.087       .  S
C799        C800   1.371       .  D
C800        C807   1.487       .  S
C805        C953   1.467       .  S
C805        C806   1.391       .  A
C805        C810   1.393       .  A
C806        C807   1.407       .  A
C806        H811   1.085       .  S
C807        C808   1.412       .  A
C808        C809   1.415       .  A
C808        H812   1.083       .  S
C809        C810   1.410       .  A
C810        H813   1.085       .  S
C814        C871   1.505       .  S
C814        C815   1.509       .  S
C814        C820   1.505       .  S
C814        C818   1.524       .  S
C815        H822   1.087   1_565  S
C815        C816   1.375       .  D
C816        C817   1.572       .  S
C816        C840   1.481       .  S
C817        C821   1.552       .  S
C817        C819   1.550       .  S
C817        H823   1.108       .  S
C818        H824   1.079       .  S
C818        C819   1.375       .  D
C820        H825   1.082       .  S
C820        C821   1.368       .  D
C821        C877   1.509       .  S
C826        C872   1.502       .  S
C826        C827   1.515       .  S
C826        C832   1.514       .  S
C826        C830   1.510       .  S
C827        H834   1.087       .  S
C827        C828   1.372       .  D
C828        C829   1.574       .  S
C828        C842   1.487       .  S
C829        C833   1.549       .  S
C829        C831   1.580       .  S
C829        H835   1.110       .  S
C830        H836   1.080       .  S
C830        C831   1.382       .  D
C832        H837   1.084       .  S
C832        C833   1.363       .  D
C833        C889   1.508       .  S
C838        C839   1.394       .  A
C839        C840   1.410       .  A
C839        H844   1.085       .  S
C840        C841   1.411       .  A
C841        H845   1.083       .  S
C842        C843   1.410       .  A
C843        H846   1.085       .  S
O847      Cu1231   1.985   1_554  S
O847        C857   1.279       .  A
O848       Cu855   2.002       .  S
O849       Cu855   2.031       .  S
O849       C1235   1.280       .  A
O850       Cu855   2.006       .  S
O850       C1236   1.276       .  A
O851       Cu856   2.025       .  S
O852       Cu856   2.037       .  S
O853      Cu1232   2.007       .  S
O853        C858   1.281       .  A
O854       Cu856   2.022       .  S
Cu855      O1223   1.985       .  S
Cu856      O1229   2.007   1_554  S
C857        C887   1.505       .  S
C858        C875   1.503       .  S
C859       O1225   1.280   1_554  A
C859        C873   1.486   1_554  S
C860       O1226   1.276   1_554  A
C860       C1402   1.471       .  S
O861       Cu869   2.024       .  S
O862      Cu1245   2.007   1_554  S
O862        C872   1.281       .  A
O863       Cu869   2.036       .  S
O863       C1249   1.281       .  A
O864       Cu869   2.019       .  S
O864       C1250   1.278       .  A
O865       Cu870   2.004       .  S
O866       Cu870   2.032       .  S
O867       Cu870   2.000       .  S
O868      Cu1246   1.985       .  S
O868        C871   1.278       .  A
Cu869      O1238   2.007       .  S
Cu870      O1244   1.985   1_554  S
C873       O1239   1.281       .  A
C874       O1240   1.278       .  A
C874       C1120   1.468       .  S
C875        C876   1.513       .  S
C875        C881   1.519       .  S
C875        C879   1.507       .  S
C876        H883   1.084       .  S
C876        C877   1.364       .  D
C877        C878   1.552       .  S
C878        C882   1.568       .  S
C878        C880   1.579       .  S
C878        H884   1.110       .  S
C879        H885   1.079       .  S
C879        C880   1.383       .  D
C880        C913   1.528       .  S
C881        H886   1.087   1_565  S
C881        C882   1.373       .  D
C882        C903   1.486       .  S
C887        C888   1.506       .  S
C887        C893   1.508       .  S
C887        C891   1.521       .  S
C888        H895   1.082       .  S
C888        C889   1.368       .  D
C889        C890   1.552       .  S
C890        C894   1.576       .  S
C890        C892   1.555       .  S
C890        H896   1.108       .  S
C891        H897   1.079       .  S
C891        C892   1.371       .  D
C892        C925   1.508       .  S
C893        H898   1.087       .  S
C893        C894   1.377       .  D
C894        C901   1.482       .  S
C899       C1059   1.468       .  S
C899        C900   1.391       .  A
C900        C901   1.408       .  A
C900        H905   1.085       .  S
C901        C902   1.413       .  A
C902        H906   1.083       .  S
C903        C904   1.409       .  A
C904        H907   1.085       .  S
C908        C909   1.516       .  S
C908        C914   1.514       .  S
C908        C912   1.506       .  S
C909        H916   1.087       .  S
C909        C910   1.371       .  D
C910        C911   1.570       .  S
C910        C934   1.488       .  S
C911        C915   1.552       .  S
C911        C913   1.580       .  S
C911        H917   1.110       .  S
C912        H918   1.079       .  S
C912        C913   1.382       .  D
C914        H919   1.084       .  S
C914        C915   1.366       .  D
C920        C921   1.510       .  S
C920        C926   1.505       .  S
C920        C924   1.524       .  S
C921        H928   1.087       .  S
C921        C922   1.378       .  D
C922        C923   1.575       .  S
C922        C936   1.481       .  S
C923        C927   1.552       .  S
C923        C925   1.550       .  S
C923        H929   1.108       .  S
C924        H930   1.078       .  S
C924        C925   1.373       .  D
C926        H931   1.084       .  S
C926        C927   1.369       .  D
C932        C968   1.468       .  S
C932        C933   1.392       .  A
C932        C937   1.392       .  A
C933        C934   1.410       .  A
C933        H938   1.085       .  S
C934        C935   1.412       .  A
C935        C936   1.414       .  A
C935        H939   1.083       .  S
C936        C937   1.408       .  A
C937        H940   1.085       .  S
O941       Cu949   2.026       .  S
O941        C951   1.277       .  A
O942       Cu949   2.006       .  S
O942        C952   1.281       .  A
O943       Cu949   2.025       .  S
O943        C953   1.279       .  A
O944       Cu949   2.033       .  S
O944        C954   1.281       .  A
O945       Cu950   2.027       .  S
O945        C954   1.279       .  A
O946       Cu950   1.996       .  S
O946        C953   1.275       .  A
O947       Cu950   1.998       .  S
O947        C952   1.275       .  A
O948       Cu950   1.988       .  S
O948        C951   1.279       .  A
Cu949      Cu950   2.373       .  S
C951       C1075   1.509       .  S
C952       C1063   1.502       .  S
C954        C967   1.483   1_455  S
O955       Cu963   2.026       .  S
O955        C965   1.278       .  A
O956       Cu963   2.006       .  S
O956        C966   1.281       .  A
O957       Cu963   2.035       .  S
O957        C967   1.281       .  A
O958       Cu963   2.028       .  S
O958        C968   1.279       .  A
O959       Cu964   1.997       .  S
O959        C968   1.275       .  A
O960       Cu964   2.025       .  S
O960        C967   1.279       .  A
O961       Cu964   1.994       .  S
O961        C966   1.274       .  A
O962       Cu964   1.983       .  S
O962        C965   1.278       .  A
Cu963      Cu964   2.373       .  S
C965        C969   1.505       .  S
C966        C981   1.501       .  S
C969        C970   1.510       .  S
C969        C975   1.504       .  S
C969        C973   1.524       .  S
C970        H977   1.087       .  S
C970        C971   1.377       .  D
C971        C972   1.574       .  S
C971        C997   1.482       .  S
C972        C976   1.554       .  S
C972        C974   1.554       .  S
C972        H978   1.108       .  S
C973        H979   1.079       .  S
C973        C974   1.372       .  D
C974       C1007   1.508       .  S
C975        H980   1.083       .  S
C975        C976   1.367       .  D
C976       C1065   1.509   1_655  S
C981        C982   1.517       .  S
C981        C987   1.511       .  S
C981        C985   1.501       .  S
C982        H989   1.087       .  S
C982        C983   1.372       .  D
C983        C984   1.568       .  S
C983        C995   1.485       .  S
C984        C988   1.553       .  S
C984        C986   1.584       .  S
C984        H990   1.110       .  S
C985        H991   1.078       .  S
C985        C986   1.381       .  D
C986       C1019   1.530       .  S
C987        H992   1.085       .  S
C987        C988   1.366       .  D
C988       C1077   1.512   1_655  S
C993        C994   1.391       .  A
C993       C1374   1.392   1_554  A
C994        C995   1.407       .  A
C994        H999   1.085       .  S
C995        C996   1.412       .  A
C996       C1373   1.414   1_554  A
C996       H1000   1.083       .  S
C997       C1372   1.414       .  A
C997        C998   1.409       .  A
C998       C1369   1.392       .  A
C998       H1001   1.085       .  S
C1002      C1061   1.508       .  S
C1002      C1003   1.506       .  S
C1002      C1008   1.509       .  S
C1002      C1006   1.524       .  S
C1003      H1010   1.082       .  S
C1003      C1004   1.368       .  D
C1004      C1005   1.551       .  S
C1004      C1103   1.511   1_655  S
C1005      C1009   1.574       .  S
C1005      C1007   1.553       .  S
C1005      H1011   1.108       .  S
C1006      H1012   1.080       .  S
C1006      C1007   1.375       .  D
C1008      C1009   1.376       .  D
C1009      C1028   1.481       .  S
C1014      C1062   1.506       .  S
C1014      C1015   1.515       .  S
C1014      C1020   1.518       .  S
C1014      C1018   1.509       .  S
C1015      H1022   1.084       .  S
C1015      C1016   1.365       .  D
C1016      C1017   1.549       .  S
C1016      C1115   1.509   1_655  S
C1017      C1021   1.570       .  S
C1017      C1019   1.579       .  S
C1017      H1023   1.110       .  S
C1018      H1024   1.080       .  S
C1018      C1019   1.384       .  D
C1020      H1025   1.087       .  S
C1020      C1021   1.373       .  D
C1021      C1030   1.487       .  S
C1026      C1236   1.471       .  S
C1026      C1407   1.394       .  A
C1027      C1028   1.409       .  A
C1027      H1032   1.085       .  S
C1029      C1406   1.411       .  A
C1029      H1033   1.083       .  S
C1030      C1405   1.411       .  A
C1030      C1031   1.411       .  A
C1031      C1402   1.394       .  A
C1031      H1034   1.085       .  S
O1035     Cu1043   2.021       .  S
O1036     Cu1043   2.001       .  S
O1036      C1046   1.280       .  A
O1037     Cu1043   2.033       .  S
O1038     Cu1043   2.024       .  S
O1039     Cu1044   2.007       .  S
O1039      C1048   1.277       .  A
O1040     Cu1044   2.035       .  S
O1040      C1047   1.280       .  A
O1041     Cu1044   2.000       .  S
O1042     Cu1044   1.988       .  S
O1042      C1045   1.279       .  A
C1045      C1108   1.506       .  S
C1046      C1096   1.500       .  S
C1047      C1060   1.485   1_455  S
O1049     Cu1057   2.003       .  S
O1050     Cu1057   2.027       .  S
O1051     Cu1057   1.992       .  S
O1051      C1061   1.279       .  A
O1052     Cu1057   2.005       .  S
O1053     Cu1058   2.013       .  S
O1053      C1062   1.281       .  A
O1054     Cu1058   2.029       .  S
O1055     Cu1058   2.038       .  S
O1055      C1060   1.281       .  A
O1056     Cu1058   2.021       .  S
O1056      C1059   1.278       .  A
C1063      C1064   1.512       .  S
C1063      C1069   1.515       .  S
C1063      C1067   1.507       .  S
C1064      H1071   1.084       .  S
C1064      C1065   1.365       .  D
C1065      C1066   1.552       .  S
C1066      C1070   1.571       .  S
C1066      C1068   1.579       .  S
C1066      H1072   1.110       .  S
C1067      H1073   1.079       .  S
C1067      C1068   1.383       .  D
C1068      C1101   1.528       .  S
C1069      H1074   1.087       .  S
C1069      C1070   1.371       .  D
C1070      C1089   1.487       .  S
C1075      C1076   1.505       .  S
C1075      C1081   1.509       .  S
C1075      C1079   1.524       .  S
C1076      H1083   1.084       .  S
C1076      C1077   1.368       .  D
C1077      C1078   1.554       .  S
C1078      C1082   1.576       .  S
C1078      C1080   1.551       .  S
C1078      H1084   1.108       .  S
C1079      H1085   1.078       .  S
C1079      C1080   1.371       .  D
C1080      C1113   1.506       .  S
C1081      H1086   1.087       .  S
C1081      C1082   1.377       .  D
C1082      C1091   1.482       .  S
C1087      C1464   1.392       .  A
C1087      C1092   1.394   1_556  A
C1088      C1463   1.392       .  A
C1088      C1089   1.409       .  A
C1088      H1093   1.085       .  S
C1089      C1466   1.411       .  A
C1090      C1465   1.411       .  A
C1090      C1091   1.413   1_556  A
C1090      H1094   1.083       .  S
C1091      C1092   1.410       .  A
C1092      H1095   1.085       .  S
C1096      C1097   1.517       .  S
C1096      C1102   1.510       .  S
C1096      C1100   1.505       .  S
C1097      C1098   1.373       .  D
C1098      C1099   1.570       .  S
C1098      C1124   1.486       .  S
C1099      C1103   1.554       .  S
C1099      C1101   1.580       .  S
C1099      H1105   1.110       .  S
C1100      H1106   1.079       .  S
C1100      C1101   1.382       .  D
C1102      H1107   1.083       .  S
C1102      C1103   1.363       .  D
C1108      C1109   1.508       .  S
C1108      C1114   1.506       .  S
C1108      C1112   1.522       .  S
C1109      H1116   1.087       .  S
C1109      C1110   1.376       .  D
C1110      C1111   1.576       .  S
C1110      C1122   1.483       .  S
C1111      C1115   1.552       .  S
C1111      C1113   1.552       .  S
C1111      H1117   1.108       .  S
C1112      H1118   1.079       .  S
C1112      C1113   1.372       .  D
C1114      H1119   1.083       .  S
C1114      C1115   1.368       .  D
C1120      C1121   1.392   1_556  A
C1121      C1122   1.409       .  A
C1121      H1126   1.085       .  S
C1122      C1123   1.413   1_554  A
C1123      H1127   1.083       .  S
C1124      C1125   1.409       .  A
C1125      H1128   1.085       .  S
O1129     Cu1137   2.022       .  S
O1129      C1139   1.278   1_556  A
O1130     Cu1137   1.997       .  S
O1131      C1141   1.280       .  A
O1132     Cu1137   2.001       .  S
O1132      C1142   1.275       .  A
O1133      C1142   1.281       .  A
O1134     Cu1138   2.028       .  S
O1134      C1141   1.278       .  A
O1135     Cu1138   2.024       .  S
O1135      C1140   1.278       .  A
O1136     Cu1138   2.031       .  S
C1139      C1155   1.481   1_554  S
C1140      C1369   1.466       .  S
C1141      C1296   1.512       .  S
C1142      C1284   1.503       .  S
O1143      C1153   1.280       .  A
O1144     Cu1151   2.023       .  S
O1144      C1154   1.277       .  A
O1145     Cu1151   2.035       .  S
O1145      C1155   1.281       .  A
O1146     Cu1151   2.028       .  S
O1147     Cu1152   1.995       .  S
O1147      C1156   1.275       .  A
O1148     Cu1152   2.022       .  S
O1149      C1154   1.280       .  A
O1150     Cu1152   1.995       .  S
O1150      C1153   1.275       .  A
C1153      C1169   1.499       .  S
C1154      C1157   1.505       .  S
C1156      C1463   1.469       .  S
C1157      C1158   1.505       .  S
C1157      C1163   1.511       .  S
C1157      C1161   1.522       .  S
C1158      H1165   1.083       .  S
C1158      C1159   1.366       .  D
C1159      C1160   1.553       .  S
C1159      C1291   1.510       .  S
C1160      C1164   1.576       .  S
C1160      C1162   1.554       .  S
C1160      H1166   1.108       .  S
C1161      H1167   1.079       .  S
C1161      C1162   1.371       .  D
C1162      C1195   1.505       .  S
C1163      H1168   1.087       .  S
C1163      C1164   1.378       .  D
C1164      C1185   1.483       .  S
C1169      C1170   1.507       .  S
C1169      C1175   1.515       .  S
C1169      C1173   1.501       .  S
C1170      H1177   1.084       .  S
C1170      C1171   1.365       .  D
C1171      C1172   1.557       .  S
C1171      C1303   1.510       .  S
C1172      C1176   1.570       .  S
C1172      C1174   1.584       .  S
C1172      H1178   1.110       .  S
C1173      H1179   1.078       .  S
C1173      C1174   1.383       .  D
C1174      C1207   1.532       .  S
C1175      H1180   1.087       .  S
C1175      C1176   1.371       .  D
C1176      C1183   1.487       .  S
C1181      C1329   1.467       .  S
C1181      C1182   1.391       .  A
C1181      C1186   1.393       .  A
C1182      C1183   1.407       .  A
C1182      H1187   1.085       .  S
C1183      C1184   1.412       .  A
C1184      C1185   1.415       .  A
C1184      H1188   1.083       .  S
C1185      C1186   1.410       .  A
C1186      H1189   1.085       .  S
C1190      C1247   1.505       .  S
C1190      C1191   1.509       .  S
C1190      C1196   1.505       .  S
C1190      C1194   1.524       .  S
C1191      H1198   1.087   1_565  S
C1191      C1192   1.375       .  D
C1192      C1193   1.572       .  S
C1192      C1216   1.481       .  S
C1193      C1197   1.552       .  S
C1193      C1195   1.550       .  S
C1193      H1199   1.108       .  S
C1194      H1200   1.079       .  S
C1194      C1195   1.375       .  D
C1196      H1201   1.082       .  S
C1196      C1197   1.368       .  D
C1197      C1253   1.509       .  S
C1202      C1248   1.502       .  S
C1202      C1203   1.515       .  S
C1202      C1208   1.514       .  S
C1202      C1206   1.510       .  S
C1203      H1210   1.087       .  S
C1203      C1204   1.372       .  D
C1204      C1205   1.574       .  S
C1204      C1218   1.487       .  S
C1205      C1209   1.549       .  S
C1205      C1207   1.580       .  S
C1205      H1211   1.110       .  S
C1206      H1212   1.080       .  S
C1206      C1207   1.382       .  D
C1208      H1213   1.084       .  S
C1208      C1209   1.363       .  D
C1209      C1265   1.508       .  S
C1214      C1215   1.394       .  A
C1215      C1216   1.410       .  A
C1215      H1220   1.085       .  S
C1216      C1217   1.411       .  A
C1217      H1221   1.083       .  S
C1218      C1219   1.410       .  A
C1219      H1222   1.085       .  S
O1223      C1233   1.279       .  A
O1224     Cu1231   2.002       .  S
O1225     Cu1231   2.031       .  S
O1226     Cu1231   2.006       .  S
O1227     Cu1232   2.025       .  S
O1228     Cu1232   2.037       .  S
O1229      C1234   1.281       .  A
O1230     Cu1232   2.022       .  S
C1233      C1263   1.505       .  S
C1234      C1251   1.503       .  S
C1235      C1249   1.486       .  S
O1237     Cu1245   2.024       .  S
O1238      C1248   1.281       .  A
O1239     Cu1245   2.036       .  S
O1240     Cu1245   2.019       .  S
O1241     Cu1246   2.004       .  S
O1242     Cu1246   2.032       .  S
O1243     Cu1246   2.000       .  S
O1244      C1247   1.278       .  A
C1250      C1496   1.468       .  S
C1251      C1252   1.513       .  S
C1251      C1257   1.519       .  S
C1251      C1255   1.507       .  S
C1252      H1259   1.084       .  S
C1252      C1253   1.364       .  D
C1253      C1254   1.552       .  S
C1254      C1258   1.568       .  S
C1254      C1256   1.579       .  S
C1254      H1260   1.110       .  S
C1255      H1261   1.079       .  S
C1255      C1256   1.383       .  D
C1256      C1289   1.528       .  S
C1257      H1262   1.087   1_565  S
C1257      C1258   1.373       .  D
C1258      C1279   1.486       .  S
C1263      C1264   1.506       .  S
C1263      C1269   1.508       .  S
C1263      C1267   1.521       .  S
C1264      H1271   1.082       .  S
C1264      C1265   1.368       .  D
C1265      C1266   1.552       .  S
C1266      C1270   1.576       .  S
C1266      C1268   1.555       .  S
C1266      H1272   1.108       .  S
C1267      H1273   1.079       .  S
C1267      C1268   1.371       .  D
C1268      C1301   1.508       .  S
C1269      H1274   1.087       .  S
C1269      C1270   1.377       .  D
C1270      C1277   1.482       .  S
C1275      C1435   1.468       .  S
C1275      C1276   1.391       .  A
C1276      C1277   1.408       .  A
C1276      H1281   1.085       .  S
C1277      C1278   1.413       .  A
C1278      H1282   1.083       .  S
C1279      C1280   1.409       .  A
C1280      H1283   1.085       .  S
C1284      C1285   1.516       .  S
C1284      C1290   1.514       .  S
C1284      C1288   1.506       .  S
C1285      H1292   1.087       .  S
C1285      C1286   1.371       .  D
C1286      C1287   1.570       .  S
C1286      C1310   1.488       .  S
C1287      C1291   1.552       .  S
C1287      C1289   1.580       .  S
C1287      H1293   1.110       .  S
C1288      H1294   1.079       .  S
C1288      C1289   1.382       .  D
C1290      H1295   1.084       .  S
C1290      C1291   1.366       .  D
C1296      C1297   1.510       .  S
C1296      C1302   1.505       .  S
C1296      C1300   1.524       .  S
C1297      H1304   1.087       .  S
C1297      C1298   1.378       .  D
C1298      C1299   1.575       .  S
C1298      C1312   1.481       .  S
C1299      C1303   1.552       .  S
C1299      C1301   1.550       .  S
C1299      H1305   1.108       .  S
C1300      H1306   1.078       .  S
C1300      C1301   1.373       .  D
C1302      H1307   1.084       .  S
C1302      C1303   1.369       .  D
C1308      C1344   1.468       .  S
C1308      C1309   1.392       .  A
C1308      C1313   1.392       .  A
C1309      C1310   1.410       .  A
C1309      H1314   1.085       .  S
C1310      C1311   1.412       .  A
C1311      C1312   1.414       .  A
C1311      H1315   1.083       .  S
C1312      C1313   1.408       .  A
C1313      H1316   1.085       .  S
O1317     Cu1325   2.026       .  S
O1317      C1327   1.277       .  A
O1318     Cu1325   2.006       .  S
O1318      C1328   1.281       .  A
O1319     Cu1325   2.024       .  S
O1319      C1329   1.279       .  A
O1320     Cu1325   2.033       .  S
O1320      C1330   1.281       .  A
O1321     Cu1326   2.027       .  S
O1321      C1330   1.279       .  A
O1322     Cu1326   1.996       .  S
O1322      C1329   1.275       .  A
O1323     Cu1326   1.998       .  S
O1323      C1328   1.275       .  A
O1324     Cu1326   1.988       .  S
O1324      C1327   1.279       .  A
Cu1325    Cu1326   2.373       .  S
C1327      C1451   1.509       .  S
C1328      C1439   1.502       .  S
C1330      C1343   1.483   1_455  S
O1331     Cu1339   2.026       .  S
O1331      C1341   1.278       .  A
O1332     Cu1339   2.006       .  S
O1332      C1342   1.281       .  A
O1333     Cu1339   2.035       .  S
O1333      C1343   1.281       .  A
O1334     Cu1339   2.028       .  S
O1334      C1344   1.279       .  A
O1335     Cu1340   1.997       .  S
O1335      C1344   1.275       .  A
O1336     Cu1340   2.025       .  S
O1336      C1343   1.279       .  A
O1337     Cu1340   1.994       .  S
O1337      C1342   1.274       .  A
O1338     Cu1340   1.983       .  S
O1338      C1341   1.278       .  A
Cu1339    Cu1340   2.373       .  S
C1341      C1345   1.505       .  S
C1342      C1357   1.501       .  S
C1345      C1346   1.510       .  S
C1345      C1351   1.504       .  S
C1345      C1349   1.524       .  S
C1346      H1353   1.087       .  S
C1346      C1347   1.377       .  D
C1347      C1348   1.574       .  S
C1347      C1373   1.482       .  S
C1348      C1352   1.554       .  S
C1348      C1350   1.554       .  S
C1348      H1354   1.108       .  S
C1349      H1355   1.079       .  S
C1349      C1350   1.372       .  D
C1350      C1383   1.508       .  S
C1351      H1356   1.083       .  S
C1351      C1352   1.367       .  D
C1352      C1441   1.509   1_655  S
C1357      C1358   1.517       .  S
C1357      C1363   1.511       .  S
C1357      C1361   1.501       .  S
C1358      H1365   1.087       .  S
C1358      C1359   1.372       .  D
C1359      C1360   1.568       .  S
C1359      C1371   1.485       .  S
C1360      C1364   1.553       .  S
C1360      C1362   1.584       .  S
C1360      H1366   1.110       .  S
C1361      H1367   1.078       .  S
C1361      C1362   1.381       .  D
C1362      C1395   1.530       .  S
C1363      H1368   1.085       .  S
C1363      C1364   1.366       .  D
C1364      C1453   1.512   1_655  S
C1369      C1370   1.391       .  A
C1370      C1371   1.407       .  A
C1370      H1375   1.085       .  S
C1371      C1372   1.412       .  A
C1372      H1376   1.083       .  S
C1373      C1374   1.409       .  A
C1374      H1377   1.085       .  S
C1378      C1437   1.508       .  S
C1378      C1379   1.506       .  S
C1378      C1384   1.509       .  S
C1378      C1382   1.524       .  S
C1379      H1386   1.082       .  S
C1379      C1380   1.368       .  D
C1380      C1381   1.551       .  S
C1380      C1479   1.511   1_655  S
C1381      C1385   1.574       .  S
C1381      C1383   1.553       .  S
C1381      H1387   1.108       .  S
C1382      H1388   1.080       .  S
C1382      C1383   1.375       .  D
C1384      C1385   1.376       .  D
C1385      C1404   1.481       .  S
C1390      C1438   1.506       .  S
C1390      C1391   1.515       .  S
C1390      C1396   1.518       .  S
C1390      C1394   1.509       .  S
C1391      H1398   1.084       .  S
C1391      C1392   1.365       .  D
C1392      C1393   1.549       .  S
C1392      C1491   1.509   1_655  S
C1393      C1397   1.570       .  S
C1393      C1395   1.579       .  S
C1393      H1399   1.110       .  S
C1394      H1400   1.080       .  S
C1394      C1395   1.384       .  D
C1396      H1401   1.087       .  S
C1396      C1397   1.373       .  D
C1397      C1406   1.487       .  S
C1403      C1404   1.409       .  A
C1403      H1408   1.085       .  S
C1405      H1409   1.083       .  S
C1406      C1407   1.411       .  A
C1407      H1410   1.085       .  S
O1411     Cu1419   2.021       .  S
O1412     Cu1419   2.001       .  S
O1412      C1422   1.280       .  A
O1413     Cu1419   2.033       .  S
O1414     Cu1419   2.024       .  S
O1415     Cu1420   2.007       .  S
O1415      C1424   1.277       .  A
O1416     Cu1420   2.035       .  S
O1416      C1423   1.280       .  A
O1417     Cu1420   2.000       .  S
O1418     Cu1420   1.988       .  S
O1418      C1421   1.279       .  A
C1421      C1484   1.506       .  S
C1422      C1472   1.500       .  S
C1423      C1436   1.485   1_455  S
O1425     Cu1433   2.003       .  S
O1426     Cu1433   2.027       .  S
O1427     Cu1433   1.992       .  S
O1427      C1437   1.279       .  A
O1428     Cu1433   2.005       .  S
O1429     Cu1434   2.013       .  S
O1429      C1438   1.281       .  A
O1430     Cu1434   2.029       .  S
O1431     Cu1434   2.038       .  S
O1431      C1436   1.281       .  A
O1432     Cu1434   2.021       .  S
O1432      C1435   1.278       .  A
C1439      C1440   1.512       .  S
C1439      C1445   1.515       .  S
C1439      C1443   1.507       .  S
C1440      H1447   1.084       .  S
C1440      C1441   1.365       .  D
C1441      C1442   1.552       .  S
C1442      C1446   1.571       .  S
C1442      C1444   1.579       .  S
C1442      H1448   1.110       .  S
C1443      H1449   1.079       .  S
C1443      C1444   1.383       .  D
C1444      C1477   1.528       .  S
C1445      H1450   1.087       .  S
C1445      C1446   1.371       .  D
C1446      C1465   1.487       .  S
C1451      C1452   1.505       .  S
C1451      C1457   1.509       .  S
C1451      C1455   1.524       .  S
C1452      H1459   1.084       .  S
C1452      C1453   1.368       .  D
C1453      C1454   1.554       .  S
C1454      C1458   1.576       .  S
C1454      C1456   1.551       .  S
C1454      H1460   1.108       .  S
C1455      H1461   1.078       .  S
C1455      C1456   1.371       .  D
C1456      C1489   1.506       .  S
C1457      H1462   1.087       .  S
C1457      C1458   1.377       .  D
C1458      C1467   1.482       .  S
C1463      C1468   1.394       .  A
C1464      C1465   1.409       .  A
C1464      H1469   1.085       .  S
C1466      C1467   1.413       .  A
C1466      H1470   1.083       .  S
C1467      C1468   1.410       .  A
C1468      H1471   1.085       .  S
C1472      C1473   1.517       .  S
C1472      C1478   1.510       .  S
C1472      C1476   1.505       .  S
C1473      C1474   1.373       .  D
C1474      C1475   1.570       .  S
C1474      C1500   1.486       .  S
C1475      C1479   1.554       .  S
C1475      C1477   1.580       .  S
C1475      H1481   1.110       .  S
C1476      H1482   1.079       .  S
C1476      C1477   1.382       .  D
C1478      H1483   1.083       .  S
C1478      C1479   1.363       .  D
C1484      C1485   1.508       .  S
C1484      C1490   1.506       .  S
C1484      C1488   1.522       .  S
C1485      H1492   1.087       .  S
C1485      C1486   1.376       .  D
C1486      C1487   1.576       .  S
C1486      C1498   1.483       .  S
C1487      C1491   1.552       .  S
C1487      C1489   1.552       .  S
C1487      H1493   1.108       .  S
C1488      H1494   1.079       .  S
C1488      C1489   1.372       .  D
C1490      H1495   1.083       .  S
C1490      C1491   1.368       .  D
C1496      C1497   1.392       .  A
C1497      C1498   1.409       .  A
C1497      H1502   1.085       .  S
C1498      C1499   1.413       .  A
C1499      H1503   1.083       .  S
C1500      C1501   1.409       .  A
C1501      H1504   1.085       .  S
