geometry optimzed in LAMMPS
_audit_creation_date              2020-12-01 
_audit_creation_method            'lammps2cif' 
_symmetry_space_group_name_H-M    'P1' 
_symmetry_Int_Tables_number       1 
_symmetry_cell_setting            triclinic 
loop_ 
_symmetry_equiv_pos_as_xyz 
  x,y,z 
_cell_length_a                    45.81389921 
_cell_length_b                    45.81733779719131 
_cell_length_c                    33.48925035427428 
_cell_angle_alpha                 89.9736130808767 
_cell_angle_beta                  90.41588047594583 
_cell_angle_gamma                 89.71621448709112 
loop_ 
_atom_site_label 
_atom_site_type_symbol 
_atom_site_fract_x 
_atom_site_fract_y 
_atom_site_fract_z 
_atom_site_charge 
N1          N  0.96948569  0.74640904  0.49289741    -0.02700
C2          C  0.96757370  0.71680294  0.49119933    -0.00100
C3          C  0.95364326  0.71019361  0.02497939    -0.23000
C4          C  0.95086688  0.73401460  0.04965461    -0.23200
C5          C  0.95877031  0.75808786  0.02750705    -0.00200
H6          H  0.94910143  0.68777768  0.03289683     0.13500
H7          H  0.94435968  0.73374216  0.08065119     0.13600
N8          N  0.04997510  0.21956905  0.00780025    -0.02700
C9          C  0.05275071  0.24861823  0.01431389    -0.00100
C10         C  0.06320500  0.26164045  0.47295279    -0.23000
C11         C  0.06579112  0.23841679  0.44713209    -0.23200
C12         C  0.05720133  0.21388775  0.46791465    -0.00200
H13         H  0.06701912  0.28434662  0.46587704     0.13500
H14         H  0.07160236  0.23953762  0.41590678     0.13600
N15         N  0.73933043  0.95234402  0.48716538    -0.02700
C16         C  0.76682877  0.94332471  0.47885411    -0.00100
C17         C  0.78279558  0.93361785  0.02598239    -0.23000
C18         C  0.75992646  0.93239412  0.05250971    -0.23200
C19         C  0.73540734  0.94205375  0.03213946    -0.00200
H20         H  0.80538290  0.92830615  0.03243901     0.13500
H21         H  0.76126064  0.92622483  0.08366594     0.13600
N22         N  0.26720400  0.04352711  0.00756079    -0.02700
C23         C  0.23859800  0.04980417  0.01452216    -0.00100
C24         C  0.22639386  0.05296715  0.47525942    -0.23000
C25         C  0.24704776  0.05152076  0.44572372    -0.23200
C26         C  0.27340484  0.04541315  0.46428640    -0.00200
H27         H  0.20319419  0.05611156  0.47061141     0.13500
H28         H  0.24314151  0.05428246  0.41403822     0.13600
N29         N  0.55583645  0.74018976  0.49406218    -0.02700
C30         C  0.56248553  0.76872222  0.48885233    -0.00100
C31         C  0.57828734  0.78142364  0.01144166    -0.23000
C32         C  0.57642956  0.76044221  0.04083605    -0.23200
C33         C  0.56363036  0.73640165  0.02328756    -0.00200
H34         H  0.58586141  0.80358643  0.01527216     0.13500
H35         H  0.58260144  0.76286470  0.07189975     0.13600
N36         N  0.45763731  0.26837307  0.00559220    -0.02700
C37         C  0.45089235  0.23970922  0.00984005    -0.00100
C38         C  0.45153973  0.22909589  0.47038495    -0.23000
C39         C  0.45034957  0.25168792  0.44317956    -0.23200
C40         C  0.45896076  0.27660882  0.46324278    -0.00200
H41         H  0.44665536  0.20645662  0.46420623     0.13500
H42         H  0.44431122  0.24996721  0.41197598     0.13600
N43         N  0.24312271  0.45167299  0.00554877    -0.02700
C44         C  0.27197995  0.44743486  0.01306658    -0.00100
C45         C  0.28896501  0.44139772  0.47657935    -0.23000
C46         C  0.26834028  0.44178687  0.44656502    -0.23200
C47         C  0.24194198  0.44807827  0.46431179    -0.00200
H48         H  0.31218562  0.43831558  0.47257208     0.13500
H49         H  0.27227023  0.43819156  0.41512346     0.13600
N50         N  0.76823754  0.53890363  0.48477712    -0.02700
C51         C  0.73907293  0.54363396  0.48138219    -0.00100
C52         C  0.73602083  0.56462760  0.01791834    -0.23000
C53         C  0.75854470  0.56331541  0.04536183    -0.23200
C54         C  0.78167024  0.54973868  0.02654363    -0.00200
H55         H  0.71415281  0.57262883  0.02341805     0.13500
H56         H  0.75771643  0.57034735  0.07617865     0.13600
O57         O  0.57337343  0.48594647  0.27339565    -0.80200
O58         O  0.44130981  0.48480135  0.22221881    -0.64800
O59         O  0.52350423  0.49785872  0.22521482    -1.11400
C60         C  0.49967045  0.57845296  0.30649312     1.06700
O61         O  0.43012172  0.53164955  0.21429891    -0.78100
O62         O  0.47621743  0.56747974  0.20551663    -0.65600
Ni63       Ni  0.55017396  0.46607094  0.23375323     1.34900
C64         C  0.50353736  0.57070268  0.20155291     0.85500
O65         O  0.48538177  0.45922126  0.18515980    -0.78600
O66         O  0.53070947  0.44198074  0.19500529    -0.88900
C67         C  0.42384162  0.50471529  0.21087392     0.85000
O68         O  0.52933911  0.44769687  0.27555555    -0.67100
O69         O  0.47619824  0.57923040  0.28576376    -0.86400
C70         C  0.50243136  0.44602811  0.28388258     0.85900
C71         C  0.50557366  0.44066377  0.17863213     1.07400
H72         H  0.47430946  0.51308899  0.28751534     0.39200
O73         O  0.48034284  0.52093038  0.26209953    -1.09000
O74         O  0.52213291  0.55749311  0.22363740    -0.65700
Ni75       Ni  0.52136692  0.52790435  0.26488897     1.26300
O76         O  0.48283122  0.46146392  0.26660284    -0.65900
O77         O  0.51789548  0.55747871  0.30462651    -0.78200
C78         C  0.57999339  0.51254718  0.27870140     0.85300
O79         O  0.56273951  0.53292474  0.26827962    -0.65400
Ni80       Ni  0.45506520  0.55339420  0.25026852     1.27400
Ni81       Ni  0.48250027  0.49003492  0.22379815     1.26100
H82         H  0.52859384  0.50650865  0.19990544     0.39800
O83         O  0.48499527  0.93113163  0.28434964    -0.80200
O84         O  0.48079606  0.06026791  0.21141339    -0.64800
O85         O  0.49513718  0.97974171  0.23416792    -1.11400
C86         C  0.57481701  0.01214089  0.30780658     1.06700
O87         O  0.52725979  0.07371042  0.20688197    -0.78100
O88         O  0.55836611  0.02348753  0.20104650    -0.65600
Ni89       Ni  0.46220384  0.95687373  0.25058609     1.34900
C90         C  0.56426541  0.99656059  0.20503442     0.85500
O91         O  0.45870485  0.01128069  0.18338267    -0.78600
O92         O  0.43441005  0.97784474  0.21733780    -0.88900
C93         C  0.50018765  0.07812189  0.20045280     0.85000
O94         O  0.45434500  0.98174842  0.29491605    -0.67100
O95         O  0.57710068  0.02996166  0.27879052    -0.86400
C96         C  0.44840896  0.00881269  0.29248668     0.85900
C97         C  0.43608285  0.99607215  0.18879149     1.07400
H98         H  0.50865254  0.03747929  0.28444715     0.39200
O99         O  0.51683200  0.02781361  0.26144886    -1.09000
O100        O  0.55492353  0.98162940  0.23453291    -0.65700
Ni101      Ni  0.52415023  0.98784483  0.27401550     1.26300
O102        O  0.45733213  0.02470729  0.26365621    -0.65900
O103        O  0.55203375  0.99733287  0.31381820    -0.78200
C104        C  0.51161585  0.92857131  0.29480210     0.85300
O105        O  0.53038176  0.94805586  0.28773804    -0.65400
Ni106      Ni  0.54983463  0.04979500  0.24340218     1.27400
Ni107      Ni  0.48726241  0.01999486  0.22277999     1.26100
H108        H  0.50386266  0.97061762  0.21096402     0.39800
O109        O  0.93304794  0.00477177  0.27834387    -0.80200
O110        O  0.06616785  0.00856530  0.22132963    -0.64800
O111        O  0.98448617  0.99414688  0.23426197    -1.11400
C112        C  0.01512862  0.91539219  0.31392689     1.06700
O113        O  0.07906852  0.96204603  0.21556480    -0.78100
O114        O  0.03094212  0.92841854  0.20922924    -0.65600
Ni115      Ni  0.95979366  0.02705202  0.24623214     1.34900
C116        C  0.00371210  0.92354904  0.20953494     0.85500
O117        O  0.01898643  0.03044064  0.18722691    -0.78600
O118        O  0.98160815  0.05425173  0.21398821    -0.88900
C119        C  0.08399110  0.98906051  0.21004834     0.85000
O120        O  0.98172704  0.03736855  0.29257088    -0.67100
O121        O  0.03558907  0.91379232  0.28842946    -0.86400
C122        C  0.00898151  0.04228609  0.29457600     0.85900
C123        C  0.00260978  0.05268298  0.18943296     1.07400
H124        H  0.03899508  0.98123568  0.29135849     0.39200
O125        O  0.03094728  0.97276078  0.26730804    -1.09000
O126        O  0.98658704  0.93473239  0.23527014    -0.65700
Ni127      Ni  0.99032957  0.96531952  0.27533351     1.26300
O128        O  0.02696718  0.03217478  0.26892991    -0.65900
O129        O  0.99778836  0.93705272  0.31606455    -0.78200
C130        C  0.92970845  0.97833659  0.28900041     0.85300
O131        O  0.94961014  0.95929925  0.28445311    -0.65400
Ni132      Ni  0.05518999  0.94019713  0.25253592     1.27400
Ni133      Ni  0.02527677  0.00210503  0.22774507     1.26100
H134        H  0.97715758  0.98511310  0.21016828     0.39800
O135        O  0.02597192  0.55839771  0.27620554    -0.80200
O136        O  0.03091921  0.42460022  0.22204004    -0.64800
O137        O  0.01643663  0.50666727  0.23154846    -1.11400
C138        C  0.93554253  0.48092418  0.30914161     1.06700
O139        O  0.98470749  0.41030147  0.22159208    -0.78100
O140        O  0.95187959  0.45843191  0.20641820    -0.65600
Ni141      Ni  0.04874544  0.53168873  0.24443286     1.34900
C142        C  0.94758177  0.48574067  0.20295777     0.85500
O143        O  0.05360132  0.47094768  0.18750205    -0.78600
O144        O  0.07640925  0.50952363  0.21339742    -0.88900
C145        C  0.01158568  0.40565938  0.21422062     0.85000
O146        O  0.05897152  0.51049761  0.29119967    -0.67100
O147        O  0.93418635  0.45933281  0.28518135    -0.86400
C148        C  0.06430197  0.48337524  0.29417127     0.85900
C149        C  0.07542484  0.48779683  0.18983595     1.07400
H150        H  0.00295043  0.45479845  0.29142948     0.39200
O151        O  0.99458699  0.46161998  0.26654045    -1.09000
O152        O  0.95728929  0.50388406  0.22867759    -0.65700
Ni153      Ni  0.98662951  0.50250053  0.27092371     1.26300
O154        O  0.05424296  0.46474788  0.26920943    -0.65900
O155        O  0.95757721  0.49749017  0.31056823    -0.78200
C156        C  0.99912040  0.56244727  0.28381896     0.85300
O157        O  0.97997928  0.54338250  0.27609061    -0.65400
Ni158      Ni  0.96188329  0.43710290  0.25345647     1.27400
Ni159      Ni  0.02448507  0.46572994  0.22718164     1.26100
H160        H  0.00803618  0.51340345  0.20661571     0.39800
C161        C  0.86221477  0.54086024  0.05305085    -0.01300
C162        C  0.86086686  0.52251915  0.08687989     0.07300
C163        C  0.83355834  0.51317598  0.10032906    -0.07200
C164        C  0.80781637  0.52178748  0.08096877     0.04800
C165        C  0.80896111  0.54019364  0.04719784    -0.14500
C166        C  0.83631872  0.54942238  0.03335242    -0.07800
C167        C  0.88713698  0.51346953  0.11030635     0.05700
C168        C  0.90255919  0.53451117  0.13217372    -0.08900
C169        C  0.92345425  0.52633882  0.16102417     0.00700
C170        C  0.92912057  0.49632909  0.16870680     0.00600
C171        C  0.91505617  0.47548937  0.14437496    -0.12500
C172        C  0.89431393  0.48377323  0.11556826     0.01000
C173        C  0.93794930  0.54941650  0.18264595     0.40300
C174        C  0.88005671  0.46132834  0.09238063     0.36900
C175        C  0.88984544  0.55082082  0.03789031     0.36700
C176        C  0.78050399  0.51081450  0.09593799     0.37400
N177        N  0.94942928  0.56813836  0.19970688    -0.43400
N178        N  0.86862109  0.44337895  0.07376807    -0.43800
N179        N  0.75864878  0.50198827  0.10799876    -0.41200
N180        N  0.91201574  0.55881067  0.02578611    -0.42600
H181        H  0.83743460  0.56360570  0.00749862     0.13600
H182        H  0.83235400  0.49922432  0.12644900     0.10100
H183        H  0.89722551  0.55741509  0.12805356     0.11100
H184        H  0.91934808  0.45241289  0.14874315     0.16900
C185        C  0.82493726  0.54159260  0.40552114    -0.01300
C186        C  0.83325971  0.51192774  0.40272417     0.07300
C187        C  0.81775230  0.49098426  0.42466160    -0.07200
C188        C  0.79513759  0.49945299  0.45029797     0.04800
C189        C  0.78791371  0.52914509  0.45432388    -0.14500
C190        C  0.80249496  0.54992980  0.43134440    -0.07800
C191        C  0.85925556  0.50279677  0.37921821     0.05700
C192        C  0.88678112  0.51329437  0.39060803    -0.08900
C193        C  0.91191195  0.50598930  0.36911142     0.00700
C194        C  0.90986963  0.48769563  0.33501548     0.00600
C195        C  0.88221725  0.47663938  0.32433362    -0.12500
C196        C  0.85710433  0.48403708  0.34600055     0.01000
C197        C  0.93942998  0.51720755  0.38356850     0.40300
C198        C  0.82919694  0.47305540  0.33270221     0.36900
C199        C  0.83923857  0.56385859  0.38236384     0.36700
C200        C  0.77999043  0.47766278  0.47316476     0.37400
N201        N  0.96141798  0.52622935  0.39534469    -0.43400
N202        N  0.80678098  0.46433173  0.32210252    -0.43800
N203        N  0.76760814  0.46035465  0.49155421    -0.41200
N204        N  0.85066139  0.58169824  0.36374531    -0.42600
H205        H  0.79684775  0.57280590  0.43462307     0.13600
H206        H  0.82392194  0.46815738  0.42268331     0.10100
H207        H  0.88861658  0.52733788  0.41658217     0.11100
H208        H  0.87998870  0.46273776  0.29830936     0.16900
C209        C  0.70405515  0.54833043  0.37853847    -0.01300
C210        C  0.67912464  0.53079379  0.38352867     0.07300
C211        C  0.67593058  0.51495160  0.41900964    -0.07200
C212        C  0.69632173  0.51753164  0.45014430     0.04800
C213        C  0.72031595  0.53661240  0.44630740    -0.14500
C214        C  0.72433891  0.55129940  0.40997763    -0.07800
C215        C  0.65576237  0.52870286  0.35260634     0.05700
C216        C  0.65504589  0.50421075  0.32767067    -0.08900
C217        C  0.63146546  0.49946720  0.30161160     0.00700
C218        C  0.60761343  0.51934141  0.30059238     0.00600
C219        C  0.60922744  0.54474640  0.32408894    -0.12500
C220        C  0.63293923  0.54943965  0.35009590     0.01000
C221        C  0.63239083  0.47391790  0.27637734     0.40300
C222        C  0.63269154  0.57493107  0.37541035     0.36900
C223        C  0.70915943  0.56341864  0.34146186     0.36700
C224        C  0.69772364  0.51128991  0.99392755     0.37400
N225        N  0.63305727  0.45346998  0.25611784    -0.43400
N226        N  0.63242864  0.59534900  0.39573561    -0.43800
N227        N  0.69441199  0.49973299  0.02427937    -0.41200
N228        N  0.71338268  0.57530541  0.31158088    -0.42600
H229        H  0.74272276  0.56586346  0.40661976     0.13600
H230        H  0.65719461  0.50082115  0.42256847     0.10100
H231        H  0.67269980  0.48837727  0.32927290     0.11100
H232        H  0.59127346  0.56026988  0.32371139     0.16900
C233        C  0.12562736  0.44132553  0.34478914    -0.01300
C234        C  0.13282459  0.45979471  0.37693898     0.07300
C235        C  0.11514691  0.48408068  0.38487688    -0.07200
C236        C  0.09136404  0.49107201  0.36006020     0.04800
C237        C  0.08507118  0.47362434  0.32606944    -0.14500
C238        C  0.10183578  0.44820028  0.31982950    -0.07800
C239        C  0.16043420  0.45608487  0.39985566     0.05700
C240        C  0.18461836  0.47259572  0.38841533    -0.08900
C241        C  0.21130397  0.46999002  0.40869418     0.00700
C242        C  0.21389815  0.45111800  0.44197574     0.00600
C243        C  0.18960688  0.43454775  0.45342029    -0.12500
C244        C  0.16308863  0.43661692  0.43227749     0.01000
C245        C  0.23546291  0.48746616  0.39519742     0.40300
C246        C  0.13910959  0.41817651  0.44364042     0.36900
C247        C  0.14339182  0.41612866  0.33566067     0.36700
C248        C  0.07425234  0.51660885  0.36995724     0.37400
N249        N  0.25481709  0.50138934  0.38418288    -0.43400
N250        N  0.11992682  0.40320265  0.45242162    -0.43800
N251        N  0.06058156  0.53710309  0.37780841    -0.41200
N252        N  0.15774675  0.39597201  0.32852424    -0.42600
H253        H  0.09751376  0.43455497  0.29402734     0.13600
H254        H  0.12056957  0.49818057  0.40984414     0.10100
H255        H  0.18264784  0.48743945  0.36327484     0.11100
H256        H  0.19153574  0.41954079  0.47835230     0.16900
C257        C  0.12046014  0.47183272  0.09849692    -0.01300
C258        C  0.14911880  0.47188804  0.11418423     0.07300
C259        C  0.15349963  0.47694412  0.15506408    -0.07200
C260        C  0.12978934  0.48225497  0.18025065     0.04800
C261        C  0.10103652  0.48187375  0.16457063    -0.14500
C262        C  0.09669472  0.47625906  0.12382576    -0.07800
C263        C  0.17473092  0.46717827  0.08812745     0.05700
C264        C  0.18122533  0.48820203  0.05908732    -0.08900
C265        C  0.20406445  0.48374136  0.03225219     0.00700
C266        C  0.22084573  0.45793626  0.03439865     0.00600
C267        C  0.21509223  0.43741886  0.06434525    -0.12500
C268        C  0.19212628  0.44176005  0.09107525     0.01000
C269        C  0.21156420  0.50527601  0.50121761     0.40300
C270        C  0.18603166  0.41932432  0.12008379     0.36900
C271        C  0.11496185  0.46775252  0.05639511     0.36700
C272        C  0.13556231  0.48750868  0.22210638     0.37400
N273        N  0.21620819  0.52354729  0.47829488    -0.43400
N274        N  0.18113427  0.40129290  0.14326444    -0.43800
N275        N  0.14032668  0.49183620  0.25556639    -0.41200
N276        N  0.11060335  0.46493013  0.02255633    -0.42600
H277        H  0.07471717  0.47616515  0.11155781     0.13600
H278        H  0.17552760  0.47711211  0.16716291     0.10100
H279        H  0.16816011  0.50796539  0.05713331     0.11100
H280        H  0.22807289  0.41759789  0.06592665     0.16900
C281        C  0.29840878  0.48724796  0.10574380    -0.01300
C282        C  0.32363532  0.47090310  0.11580202     0.07300
C283        C  0.32889685  0.44448459  0.09596994    -0.07200
C284        C  0.31100830  0.43542125  0.06440894     0.04800
C285        C  0.28743798  0.45320542  0.05154013    -0.14500
C286        C  0.28086879  0.47859522  0.07338217    -0.07800
C287        C  0.34649560  0.48177012  0.14385329     0.05700
C288        C  0.35611341  0.46365418  0.17522224    -0.08900
C289        C  0.38087394  0.47074529  0.19806274     0.00700
C290        C  0.39621974  0.49679821  0.19013183     0.00600
C291        C  0.38581859  0.51543112  0.15980992    -0.12500
C292        C  0.36166910  0.50793896  0.13627262     0.01000
C293        C  0.39005115  0.45079656  0.22914865     0.40300
C294        C  0.35449306  0.52637888  0.10255852     0.36900
C295        C  0.29048184  0.51326911  0.12753252     0.36700
C296        C  0.32121990  0.40701015  0.54113107     0.37400
N297        N  0.39740270  0.43469897  0.25393920    -0.43400
N298        N  0.34877523  0.54117072  0.07556349    -0.43800
N299        N  0.32717013  0.38577622  0.52427919    -0.41200
N300        N  0.28415789  0.53417856  0.14488183    -0.42600
H301        H  0.26296276  0.49258727  0.06406961     0.13600
H302        H  0.34788640  0.43145491  0.10401621     0.10100
H303        H  0.34477904  0.44336759  0.18097194     0.11100
H304        H  0.39757987  0.53527746  0.15291949     0.16900
C305        C  0.50026360  0.13616928  0.12039289    -0.01300
C306        C  0.47608791  0.15378071  0.13079979     0.07300
C307        C  0.45949203  0.14619606  0.16432415    -0.07200
C308        C  0.46695124  0.12175055  0.18769089     0.04800
C309        C  0.49143338  0.10447067  0.17754311    -0.14500
C310        C  0.50794586  0.11211943  0.14403000    -0.07800
C311        C  0.46736535  0.17934109  0.10582880     0.05700
C312        C  0.44046733  0.17888161  0.08563267    -0.08900
C313        C  0.43366955  0.19993441  0.05658339     0.00700
C314        C  0.45430497  0.22164574  0.04664460     0.00600
C315        C  0.48018365  0.22335952  0.06921923    -0.12500
C316        C  0.48653298  0.20283600  0.09912638     0.01000
C317        C  0.41728267  0.19847696  0.53686011     0.40300
C318        C  0.51321856  0.20582668  0.12192965     0.36900
C319        C  0.51683128  0.14161076  0.08462493     0.36700
C320        C  0.44988055  0.11548934  0.22271226     0.37400
N321        N  0.39457917  0.19589870  0.52193913    -0.43400
N322        N  0.53455085  0.20814428  0.14034273    -0.43800
N323        N  0.43634640  0.11044853  0.25091428    -0.41200
N324        N  0.53004859  0.14604716  0.05595473    -0.42600
H325        H  0.52649602  0.09872532  0.13558698     0.13600
H326        H  0.44080027  0.15950820  0.17235686     0.10100
H327        H  0.42524186  0.16134496  0.09139801     0.11100
H328        H  0.49634712  0.23961160  0.06216213     0.16900
C329        C  0.49168523  0.34826652  0.42836927    -0.01300
C330        C  0.47029874  0.35871878  0.40139664     0.07300
C331        C  0.44372847  0.34375810  0.39816045    -0.07200
C332        C  0.43900238  0.31788993  0.41975578     0.04800
C333        C  0.46142522  0.30610429  0.44433235    -0.14500
C334        C  0.48750557  0.32182941  0.44847092    -0.07800
C335        C  0.47749055  0.38192805  0.37189696     0.05700
C336        C  0.49970971  0.37592530  0.34455909    -0.08900
C337        C  0.50802450  0.39646221  0.31607874     0.00700
C338        C  0.49377437  0.42394689  0.31408641     0.00600
C339        C  0.47102147  0.42983716  0.34097833    -0.12500
C340        C  0.46299682  0.40916934  0.37002325     0.01000
C341        C  0.53074656  0.38814987  0.28854352     0.40300
C342        C  0.44072413  0.41676594  0.39846177     0.36900
C343        C  0.51829082  0.36428334  0.43549818     0.36700
C344        C  0.41103024  0.30376929  0.41595936     0.37400
N345        N  0.54905711  0.38140864  0.26672968    -0.43400
N346        N  0.42299210  0.42300401  0.42140893    -0.43800
N347        N  0.38857320  0.29248626  0.41303132    -0.41200
N348        N  0.53938645  0.37740676  0.44150628    -0.42600
H349        H  0.50535863  0.31293088  0.46584641     0.13600
H350        H  0.42708690  0.35169051  0.37761553     0.10100
H351        H  0.51063374  0.35485918  0.34545333     0.11100
H352        H  0.45994540  0.45079693  0.33986293     0.16900
C353        C  0.50222807  0.32030678  0.06610930    -0.01300
C354        C  0.48024299  0.33699441  0.08500184     0.07300
C355        C  0.45087884  0.32908450  0.07955927    -0.07200
C356        C  0.44328990  0.30546522  0.05512661     0.04800
C357        C  0.46517824  0.28909131  0.03614995    -0.14500
C358        C  0.49451639  0.29640392  0.04231316    -0.07800
C359        C  0.48714902  0.36352351  0.10892429     0.05700
C360        C  0.47497137  0.39050230  0.09741069    -0.08900
C361        C  0.48062542  0.41603045  0.11926263     0.00700
C362        C  0.49938225  0.41494024  0.15291975     0.00600
C363        C  0.51152242  0.38787742  0.16426720    -0.12500
C364        C  0.50511111  0.36228050  0.14325488     0.01000
C365        C  0.46728064  0.44299272  0.10606770     0.40300
C366        C  0.51600374  0.33483768  0.15871996     0.36900
C367        C  0.53265450  0.32823067  0.06861547     0.36700
C368        C  0.41289441  0.29906761  0.04814203     0.37400
N369        N  0.45644622  0.46453860  0.09545948    -0.43400
N370        N  0.52465521  0.31282239  0.17109299    -0.43800
N371        N  0.38855887  0.29384977  0.04222471    -0.41200
N372        N  0.55707352  0.33444421  0.07066978    -0.42600
H373        H  0.51132130  0.28415463  0.02692194     0.13600
H374        H  0.43383040  0.34181733  0.09370921     0.10100
H375        H  0.46094523  0.39159554  0.07121187     0.11100
H376        H  0.52526909  0.38648578  0.19067054     0.16900
C377        C  0.54912600  0.88341886  0.37471741    -0.01300
C378        C  0.53751459  0.85525334  0.36824777     0.07300
C379        C  0.51761044  0.85116505  0.33664850    -0.07200
C380        C  0.50917014  0.87444807  0.31180783     0.04800
C381        C  0.52094747  0.90255057  0.31818198    -0.14500
C382        C  0.54118021  0.90649338  0.34940636    -0.07800
C383        C  0.54430665  0.83028600  0.39548097     0.05700
C384        C  0.52124348  0.81655719  0.41546086    -0.08900
C385        C  0.52667717  0.79477357  0.44400048     0.00700
C386        C  0.55564653  0.78652336  0.45314691     0.00600
C387        C  0.57863166  0.79932464  0.43215142    -0.12500
C388        C  0.57318351  0.82055673  0.40285191     0.01000
C389        C  0.50565487  0.78218679  0.95409722     0.40300
C390        C  0.59756517  0.83198394  0.38081092     0.36900
C391        C  0.56800272  0.88975907  0.40831100     0.36700
C392        C  0.48890183  0.86867883  0.27959137     0.37400
N393        N  0.48632633  0.77239517  0.97156970    -0.43400
N394        N  0.61713860  0.84116845  0.36322559    -0.43800
N395        N  0.47267981  0.86389517  0.25379003    -0.41200
N396        N  0.58321943  0.89503936  0.43505476    -0.42600
H397        H  0.54997081  0.92805333  0.35513679     0.13600
H398        H  0.50848366  0.82967698  0.33153448     0.10100
H399        H  0.49897127  0.82365434  0.40981954     0.11100
H400        H  0.60094812  0.79317211  0.43931658     0.16900
C401        C  0.56395317  0.66026288  0.06679472    -0.01300
C402        C  0.53794964  0.66045142  0.08925380     0.07300
C403        C  0.52017647  0.68549274  0.08885551    -0.07200
C404        C  0.52817956  0.71024491  0.06717528     0.04800
C405        C  0.55436231  0.71018495  0.04537364    -0.14500
C406        C  0.57186789  0.68504097  0.04486486    -0.07800
C407        C  0.52982532  0.63565435  0.11553394     0.05700
C408        C  0.54846611  0.62823158  0.14734266    -0.08900
C409        C  0.54083747  0.60669642  0.17496996     0.00700
C410        C  0.51393143  0.59177993  0.17091480     0.00600
C411        C  0.49544117  0.59907109  0.13856940    -0.12500
C412        C  0.50310910  0.62079903  0.11111338     0.01000
C413        C  0.56033700  0.60194114  0.20845586     0.40300
C414        C  0.48320143  0.62758703  0.07873318     0.36900
C415        C  0.58280075  0.63493324  0.06590093     0.36700
C416        C  0.50905624  0.73539974  0.06727373     0.37400
N417        N  0.57598515  0.59831806  0.23530827    -0.43400
N418        N  0.46726695  0.63318866  0.05284069    -0.43800
N419        N  0.49368216  0.75551416  0.06700953    -0.41200
N420        N  0.59792702  0.61463540  0.06540873    -0.42600
H421        H  0.58496328  0.68181055  0.52439284     0.13600
H422        H  0.50028281  0.68589692  0.10621203     0.10100
H423        H  0.56871752  0.64008380  0.15138330     0.11100
H424        H  0.47469875  0.58804394  0.13495337     0.16900
C425        C  0.53114225  0.62089136  0.39387043    -0.01300
C426        C  0.52132284  0.64950365  0.38590391     0.07300
C427        C  0.50429289  0.65489676  0.35179456    -0.07200
C428        C  0.49692620  0.63222602  0.32554019     0.04800
C429        C  0.50635669  0.60327496  0.33369004    -0.14500
C430        C  0.52361237  0.59811092  0.36792555    -0.07800
C431        C  0.52909101  0.67419676  0.41247089     0.05700
C432        C  0.55618812  0.68783741  0.40782988    -0.08900
C433        C  0.56474796  0.71050226  0.43338350     0.00700
C434        C  0.54612777  0.71960557  0.46436392     0.00600
C435        C  0.51882437  0.70625525  0.46852554    -0.12500
C436        C  0.51009584  0.68387053  0.44267139     0.01000
C437        C  0.59324582  0.72316235  0.42844469     0.40300
C438        C  0.48178190  0.67083819  0.44799290     0.36900
C439        C  0.54903260  0.61445006  0.42846014     0.36700
C440        C  0.48108490  0.63975238  0.28950429     0.37400
N441        N  0.61613032  0.73323016  0.42418959    -0.43400
N442        N  0.45901311  0.66050111  0.45216835    -0.43800
N443        N  0.46854770  0.64595409  0.26056958    -0.41200
N444        N  0.56342542  0.60926539  0.45612493    -0.42600
H445        H  0.53125244  0.57617963  0.37452988     0.13600
H446        H  0.49714192  0.67702229  0.34535682     0.10100
H447        H  0.57081696  0.68044440  0.38456539     0.11100
H448        H  0.50454818  0.71311094  0.49245866     0.16900
C449        C  0.14143345  0.98900587  0.12913856    -0.01300
C450        C  0.15865660  0.01358963  0.13882660     0.07300
C451        C  0.15137023  0.02992775  0.17298046    -0.07200
C452        C  0.12746070  0.02228140  0.19696095     0.04800
C453        C  0.11047882  0.99755824  0.18728750    -0.14500
C454        C  0.11815241  0.98092543  0.15370106    -0.07800
C455        C  0.18238578  0.02407361  0.11172401     0.05700
C456        C  0.18005909  0.05216937  0.09524505    -0.08900
C457        C  0.19942636  0.06173643  0.06573912     0.00700
C458        C  0.22174539  0.04294417  0.05160687     0.00600
C459        C  0.22533399  0.01561118  0.07017394    -0.12500
C460        C  0.20619907  0.00624534  0.10020136     0.01000
C461        C  0.19514813  0.08946061  0.53898035     0.40300
C462        C  0.21123423  0.97802643  0.11822416     0.36900
C463        C  0.14578934  0.97283566  0.09264803     0.36700
C464        C  0.12109282  0.03985814  0.23163083     0.37400
N465        N  0.19049906  0.11109980  0.52220573    -0.43400
N466        N  0.21527677  0.95531963  0.13242545    -0.43800
N467        N  0.11594911  0.05390311  0.25944806    -0.41200
N468        N  0.14919012  0.95987751  0.06338161    -0.42600
H469        H  0.10500220  0.96221019  0.14547745     0.13600
H470        H  0.16418191  0.04899275  0.18061358     0.10100
H471        H  0.16232427  0.06637667  0.10442522     0.13500
H472        H  0.24221189  0.00082439  0.05993484     0.16900
C473        C  0.38059509  0.04505952  0.33261685    -0.01300
C474        C  0.38059271  0.03572323  0.37281226     0.07300
C475        C  0.40523136  0.02093294  0.38793462    -0.07200
C476        C  0.42867794  0.01361120  0.36290631     0.04800
C477        C  0.42778833  0.02135510  0.32203216    -0.14500
C478        C  0.40416893  0.03812643  0.30780454    -0.07800
C479        C  0.35382474  0.03816688  0.39778276     0.05700
C480        C  0.32953672  0.02123872  0.38728694    -0.08900
C481        C  0.30355321  0.02289521  0.40897450     0.00700
C482        C  0.30148689  0.04161613  0.44244109     0.00600
C483        C  0.32599484  0.05823231  0.45340545    -0.12500
C484        C  0.35196864  0.05676247  0.43127539     0.01000
C485        C  0.27950470  0.00470474  0.39649700     0.40300
C486        C  0.37586281  0.07558909  0.44219756     0.36900
C487        C  0.35608401  0.06080824  0.31572840     0.36700
C488        C  0.45330761  0.99794404  0.37964921     0.37400
N489        N  0.26028746  0.99012528  0.38631112    -0.43400
N490        N  0.39489278  0.09091389  0.45081661    -0.43800
N491        N  0.47317226  0.98550323  0.39292629    -0.41200
N492        N  0.33643498  0.07336532  0.30207592    -0.42600
H493        H  0.40319897  0.04423464  0.27651619     0.13600
H494        H  0.40554415  0.01391814  0.41886918     0.10100
H495        H  0.33088010  0.00671296  0.36178109     0.11100
H496        H  0.32454587  0.07312281  0.47846735     0.16900
C497        C  0.31792298  0.04569643  0.09531823    -0.01300
C498        C  0.33512733  0.02056107  0.08863059     0.07300
C499        C  0.32764585  0.00150046  0.05747568    -0.07200
C500        C  0.30440558  0.00809203  0.03164208     0.04800
C501        C  0.28850777  0.03420037  0.03666594    -0.14500
C502        C  0.29484438  0.05237960  0.06922720    -0.07800
C503        C  0.36131813  0.01402278  0.11331794     0.05700
C504        C  0.36149502  0.98912477  0.13755502    -0.08900
C505        C  0.38555393  0.98247260  0.16199414     0.00700
C506        C  0.41034945  0.00094093  0.16210317     0.00600
C507        C  0.41021864  0.02550248  0.13678593    -0.12500
C508        C  0.38606944  0.03214280  0.11265923     0.01000
C509        C  0.38389385  0.95653769  0.18637558     0.40300
C510        C  0.38715491  0.05780081  0.08765170     0.36900
C511        C  0.32371816  0.06488829  0.12862065     0.36700
C512        C  0.29855127  0.98706335  0.50691045     0.37400
N513        N  0.38246431  0.93578622  0.20597138    -0.43400
N514        N  0.38791189  0.07857434  0.06803644    -0.43800
N515        N  0.29142856  0.96834698  0.48585993    -0.41200
N516        N  0.32858283  0.08014678  0.15535837    -0.42600
H517        H  0.28227623  0.07223925  0.07340911     0.13600
H518        H  0.34039704  0.98180144  0.05283286     0.10100
H519        H  0.34252714  0.97504134  0.13776294     0.11100
H520        H  0.42884919  0.04000463  0.13621486     0.16900
C521        C  0.81592160  0.98166025  0.40626122    -0.01300
C522        C  0.82393168  0.95878865  0.38001807     0.07300
C523        C  0.81014878  0.93157126  0.38402241    -0.07200
C524        C  0.78998115  0.92656492  0.41462177     0.04800
C525        C  0.78283954  0.94915420  0.44140611    -0.14500
C526        C  0.79520888  0.97676960  0.43613963    -0.07800
C527        C  0.84914996  0.96163379  0.35210954     0.05700
C528        C  0.87299772  0.94253370  0.35671595    -0.08900
C529        C  0.89875330  0.94628194  0.33489795     0.00700
C530        C  0.90146976  0.97021624  0.30834191     0.00600
C531        C  0.87676525  0.98814236  0.30190298    -0.12500
C532        C  0.85069218  0.98370690  0.32280125     0.01000
C533        C  0.92200589  0.92548109  0.34151275     0.40300
C534        C  0.82576515  0.00191320  0.31336540     0.36900
C535        C  0.83048482  0.00953129  0.40567550     0.36700
C536        C  0.77769538  0.89780727  0.41902876     0.37400
N537        N  0.94015091  0.90825712  0.34687552    -0.43400
N538        N  0.80580182  0.01651324  0.30575342    -0.43800
N539        N  0.76772379  0.87480971  0.42265606    -0.41200
N540        N  0.84213040  0.03188477  0.40522945    -0.42600
H541        H  0.81430643  0.98279935  0.98760903     0.13600
H542        H  0.81612907  0.91381504  0.36425395     0.10100
H543        H  0.87183494  0.92503715  0.37848182     0.11100
H544        H  0.87782106  0.00592098  0.28058643     0.16900
C545        C  0.67336549  0.98263598  0.08228316    -0.01300
C546        C  0.65666605  0.95964311  0.09850360     0.07300
C547        C  0.66498250  0.93072543  0.09010906    -0.07200
C548        C  0.68989506  0.92459110  0.06724559     0.04800
C549        C  0.70673712  0.94756472  0.05157896    -0.14500
C550        C  0.69793895  0.97644973  0.05879981    -0.07800
C551        C  0.63103599  0.96556064  0.12496978     0.05700
C552        C  0.60741461  0.98206544  0.11011180    -0.08900
C553        C  0.58453747  0.99092349  0.13509573     0.00700
C554        C  0.58475640  0.98305260  0.17594104     0.00600
C555        C  0.60739756  0.96493532  0.19021309    -0.12500
C556        C  0.63046989  0.95632965  0.16528156     0.01000
C557        C  0.56111544  0.00822308  0.11811004     0.40300
C558        C  0.65420717  0.93959316  0.18247548     0.36900
C559        C  0.66676228  0.01274868  0.09138377     0.36700
C560        C  0.69791534  0.89452986  0.06037425     0.37400
N561        N  0.54229580  0.02207585  0.10460545    -0.43400
N562        N  0.67322263  0.92617569  0.19628684    -0.43800
N563        N  0.70437223  0.87043035  0.05482942    -0.41200
N564        N  0.66144430  0.03683395  0.09892536    -0.42600
H565        H  0.71109631  0.99424200  0.04761783     0.13600
H566        H  0.65223541  0.91288599  0.10201350     0.10100
H567        H  0.60725730  0.98872637  0.07902894     0.11100
H568        H  0.60801135  0.95889756  0.22153740     0.16900
C569        C  0.68858681  0.95488965  0.39950889    -0.01300
C570        C  0.67510176  0.98236846  0.40447261     0.07300
C571        C  0.68395795  0.00046824  0.43605795    -0.07200
C572        C  0.70553327  0.99129766  0.46311118     0.04800
C573        C  0.71862498  0.96363647  0.45855669    -0.14500
C574        C  0.71052238  0.94601691  0.42612395    -0.07800
C575        C  0.65001004  0.99158556  0.37935107     0.05700
C576        C  0.62272170  0.99486032  0.39756637    -0.08900
C577        C  0.59798914  0.00236445  0.37508743     0.00700
C578        C  0.60046975  0.00679949  0.33355376     0.00600
C579        C  0.62794076  0.00430987  0.31552449    -0.12500
C580        C  0.65266493  0.99676738  0.33802322     0.01000
C581        C  0.57058355  0.00616223  0.39553001     0.40300
C582        C  0.68042369  0.99463577  0.31805883     0.36900
C583        C  0.67898360  0.93469431  0.36907264     0.36700
C584        C  0.71385939  0.01060110  0.49515117     0.37400
N585        N  0.54870489  0.00935798  0.41206263    -0.43400
N586        N  0.70256359  0.99290380  0.30178869    -0.43800
N587        N  0.72026284  0.02621125  0.52087998    -0.41200
N588        N  0.67120017  0.91851000  0.34474915    -0.42600
H589        H  0.70333201  0.91585949  0.95804971     0.13600
H590        H  0.67356169  0.02158734  0.43996308     0.10100
H591        H  0.62071411  0.99118199  0.42943439     0.11100
H592        H  0.62997462  0.00755376  0.28356750     0.16900
C593        C  0.06345836  0.13483527  0.43472841    -0.01300
C594        C  0.04152790  0.13353974  0.40497347     0.07300
C595        C  0.02383401  0.15805367  0.39797147    -0.07200
C596        C  0.02820172  0.18395003  0.41920816     0.04800
C597        C  0.05057602  0.18564022  0.44829116    -0.14500
C598        C  0.06777934  0.16083007  0.45629890    -0.07800
C599        C  0.03661493  0.10725202  0.37990215     0.05700
C600        C  0.01348770  0.08862689  0.38921591    -0.08900
C601        C  0.00505091  0.06628954  0.36299546     0.00700
C602        C  0.01987942  0.06234672  0.32635874     0.00600
C603        C  0.04405195  0.08018818  0.31818929    -0.12500
C604        C  0.05233620  0.10258905  0.34442967     0.01000
C605        C  0.98094738  0.04797462  0.37444477     0.40300
C606        C  0.07605207  0.12152411  0.33339301     0.36900
C607        C  0.08190978  0.10992925  0.44308180     0.36700
C608        C  0.00947692  0.20864589  0.41056877     0.37400
N609        N  0.96161014  0.03333717  0.38366074    -0.43400
N610        N  0.09502611  0.13674389  0.32454541    -0.43800
N611        N  0.99458038  0.22853365  0.40378377    -0.41200
N612        N  0.09667764  0.08992126  0.44973759    -0.42600
H613        H  0.08505622  0.16201001  0.47852446     0.13600
H614        H  0.00681788  0.15705649  0.37532114     0.10100
H615        H  0.00139224  0.09217095  0.41653171     0.11100
H616        H  0.05560883  0.07767865  0.29024111     0.16900
C617        C  0.05876166  0.16080554  0.08388087    -0.01300
C618        C  0.03004048  0.15004743  0.08632245     0.07300
C619        C  0.00764365  0.16353089  0.06414311    -0.07200
C620        C  0.01371931  0.18709572  0.03896227     0.04800
C621        C  0.04242413  0.19760270  0.03631504    -0.14500
C622        C  0.06468266  0.18455016  0.05902459    -0.07800
C623        C  0.02285016  0.12489836  0.11207810     0.05700
C624        C  0.00869088  0.13008290  0.14828819    -0.08900
C625        C  0.00166188  0.10701703  0.17383577     0.00700
C626        C  0.00875205  0.07793958  0.16300563     0.00600
C627        C  0.02295152  0.07293356  0.12648756    -0.12500
C628        C  0.02986640  0.09607830  0.10100024     0.01000
C629        C  0.98826465  0.11413939  0.21152868     0.40300
C630        C  0.04366959  0.08975881  0.06332565     0.36900
C631        C  0.08245628  0.14772500  0.10632734     0.36700
C632        C  0.98895261  0.20875311  0.52092260     0.37400
N633        N  0.97754673  0.11994459  0.24170906    -0.43400
N634        N  0.05463249  0.08468839  0.03307315    -0.43800
N635        N  0.97055425  0.22055666  0.50330247    -0.41200
N636        N  0.10153966  0.13727269  0.12418125    -0.42600
H637        H  0.08681958  0.19254110  0.05639527     0.13600
H638        H  0.98553282  0.15532864  0.06608540     0.10100
H639        H  0.00344165  0.15233062  0.15681158     0.11100
H640        H  0.02846925  0.05083603  0.11760326     0.16900
C641        C  0.05669035  0.28248721  0.11773151    -0.01300
C642        C  0.03390753  0.30342342  0.11567058     0.07300
C643        C  0.01563508  0.30369329  0.08180284    -0.07200
C644        C  0.02045641  0.28465754  0.04978191     0.04800
C645        C  0.04404720  0.26473281  0.05095639    -0.14500
C646        C  0.06152921  0.26330840  0.08552491    -0.07800
C647        C  0.02973373  0.32671547  0.14658101     0.05700
C648        C  0.05227413  0.34673523  0.15408942    -0.08900
C649        C  0.04770439  0.37167471  0.17784112     0.00700
C650        C  0.01971177  0.37741831  0.19413796     0.00600
C651        C  0.99782801  0.35622076  0.18852605    -0.12500
C652        C  0.00259779  0.33120166  0.16531396     0.01000
C653        C  0.07206304  0.39111826  0.18382483     0.40300
C654        C  0.97909997  0.31052751  0.16092706     0.36900
C655        C  0.07552629  0.28051880  0.15235188     0.36700
C656        C  0.00565189  0.29329336  0.49996403     0.37400
N657        N  0.09174989  0.40648073  0.18871520    -0.43400
N658        N  0.96020548  0.29401814  0.15757401    -0.43800
N659        N  0.99215255  0.29467269  0.47067309    -0.41200
N660        N  0.09063177  0.27897929  0.18012682    -0.42600
H661        H  0.07972902  0.24810777  0.08666942     0.13600
H662        H  0.99810368  0.31962940  0.07970297     0.10100
H663        H  0.07328548  0.34348431  0.14001122     0.11100
H664        H  0.97644401  0.35943660  0.20151199     0.16900
C665        C  0.95973635  0.88972238  0.12457897    -0.01300
C666        C  0.97308097  0.86189867  0.12164878     0.07300
C667        C  0.99544253  0.85451909  0.14871333    -0.07200
C668        C  0.00538199  0.87433675  0.17722176     0.04800
C669        C  0.99225758  0.90215651  0.18030504    -0.14500
C670        C  0.96902255  0.90941303  0.15439949    -0.07800
C671        C  0.96613447  0.84004085  0.08994978     0.05700
C672        C  0.98943542  0.82966795  0.06683608    -0.08900
C673        C  0.98732964  0.80362269  0.04528422     0.00700
C674        C  0.96082709  0.78804276  0.04462521     0.00600
C675        C  0.93670855  0.79962714  0.06513313    -0.12500
C676        C  0.93917713  0.82526466  0.08795258     0.01000
C677        C  0.01697222  0.78953988  0.52963647     0.40300
C678        C  0.91444096  0.83460271  0.11121212     0.36900
C679        C  0.93778148  0.89912500  0.09620186     0.36700
C680        C  0.02934118  0.86548261  0.20285349     0.37400
N681        N  0.03884473  0.78153315  0.51640358    -0.43400
N682        N  0.89447121  0.84209121  0.12960627    -0.43800
N683        N  0.04873797  0.85836527  0.22299008    -0.41200
N684        N  0.92021168  0.90676974  0.07344359    -0.42600
H685        H  0.95901046  0.93085591  0.15636095     0.13600
H686        H  0.00573674  0.83317767  0.14693725     0.10100
H687        H  0.01033562  0.84066223  0.06859804     0.11100
H688        H  0.91628418  0.78775489  0.06499089     0.16900
C689        C  0.00575402  0.83698474  0.34573256    -0.01300
C690        C  0.99750888  0.83976192  0.38606004     0.07300
C691        C  0.99698429  0.86769757  0.40350350    -0.07200
C692        C  0.00314070  0.89269615  0.38096640     0.04800
C693        C  0.01043596  0.88990852  0.34027128    -0.14500
C694        C  0.01219498  0.86190753  0.32339524    -0.07800
C695        C  0.98879394  0.81398926  0.41030912     0.05700
C696        C  0.00831590  0.79045534  0.41514732    -0.08900
C697        C  0.00140139  0.76667061  0.43963042     0.00700
C698        C  0.97490533  0.76670967  0.46087245     0.00600
C699        C  0.95480824  0.78944698  0.45435175    -0.12500
C700        C  0.96141069  0.81287624  0.42930061     0.01000
C701        C  0.02287921  0.74384475  0.44489629     0.40300
C702        C  0.93978207  0.83559883  0.42381103     0.36900
C703        C  0.00669125  0.80895185  0.32608280     0.36700
C704        C  0.00201487  0.92083474  0.40031861     0.37400
N705        N  0.04036977  0.72576138  0.44901547    -0.43400
N706        N  0.92251278  0.85386668  0.41946081    -0.43800
N707        N  0.00106105  0.94337827  0.41584452    -0.41200
N708        N  0.00759864  0.78645406  0.31043676    -0.42600
H709        H  0.01759784  0.85953025  0.29213415     0.13600
H710        H  0.99139001  0.86998917  0.43476571     0.10100
H711        H  0.02942313  0.79109220  0.40073607     0.11100
H712        H  0.93299848  0.79418623  0.96625894     0.16900
C713        C  0.96028459  0.68308019  0.38792795    -0.01300
C714        C  0.97770901  0.65779517  0.39194559     0.07300
C715        C  0.99334726  0.65313292  0.42745913    -0.07200
C716        C  0.99118269  0.67275881  0.45931327     0.04800
C717        C  0.97303012  0.69776360  0.45597162    -0.14500
C718        C  0.95811071  0.70291547  0.41982071    -0.07800
C719        C  0.97976983  0.63545039  0.35996668     0.05700
C720        C  0.00132839  0.63820134  0.33075894    -0.08900
C721        C  0.00666816  0.61556464  0.30352002     0.00700
C722        C  0.99039046  0.58940765  0.30559448     0.00600
C723        C  0.96727452  0.58780336  0.33290196    -0.12500
C724        C  0.96210047  0.61035701  0.36024473     0.01000
C725        C  0.02878489  0.61990236  0.27363050     0.40300
C726        C  0.93936095  0.60673210  0.38943340     0.36900
C727        C  0.94381057  0.68848494  0.35179545     0.36700
C728        C  0.00826718  0.66695084  0.49490440     0.37400
N729        N  0.04637477  0.62353764  0.24952591    -0.43400
N730        N  0.92114411  0.60370535  0.41281152    -0.43800
N731        N  0.02198507  0.66229962  0.52337956    -0.41200
N732        N  0.93059979  0.69262066  0.32274591    -0.42600
H733        H  0.94393107  0.72182483  0.41699850     0.13600
H734        H  0.00706888  0.63387135  0.43041546     0.10100
H735        H  0.01457975  0.65774458  0.33001726     0.11100
H736        H  0.95419233  0.56820437  0.33443498     0.16900
N737        N  0.96606688  0.74993315  0.98979647    -0.02700
C738        C  0.96312559  0.72040192  0.98838247    -0.00100
C739        C  0.95921223  0.70598839  0.52797511    -0.23000
C740        C  0.95617601  0.72950491  0.55311039    -0.23200
C741        C  0.96283161  0.75401999  0.53105846    -0.00200
H742        H  0.95565033  0.68335763  0.53572517     0.13500
H743        H  0.95044454  0.72874145  0.58438307     0.13600
N744        N  0.04973277  0.22124821  0.50568048    -0.02700
C745        C  0.05302504  0.25056981  0.50866604    -0.00100
C746        C  0.06053126  0.26235518  0.97918295    -0.23000
C747        C  0.06222643  0.24103072  0.95024093    -0.23200
C748        C  0.05540606  0.21493061  0.96859148    -0.00200
H749        H  0.06329064  0.28556380  0.97467444     0.13500
H750        H  0.06664624  0.24438718  0.91888021     0.13600
N751        N  0.74246436  0.94903996  0.99403156    -0.02700
C752        C  0.77151977  0.94374745  0.99007376    -0.00100
C753        C  0.78005313  0.93207859  0.51271035    -0.23000
C754        C  0.75986647  0.93408618  0.54288932    -0.23200
C755        C  0.73486938  0.94636971  0.52643714    -0.00200
H756        H  0.80233405  0.92435855  0.51551484     0.13500
H757        H  0.76326039  0.92782754  0.57374318     0.13600
N758        N  0.26955438  0.04325635  0.50442835    -0.02700
C759        C  0.24065017  0.04802530  0.51129375    -0.00100
C760        C  0.22571967  0.06006807  0.97970040    -0.23000
C761        C  0.24702214  0.06039958  0.95089307    -0.23200
C762        C  0.27244156  0.04997977  0.96850510    -0.00200
H763        H  0.20299883  0.06581195  0.97518619     0.13500
H764        H  0.24412431  0.06746201  0.92028611     0.13600
N765        N  0.55761108  0.74175435  0.98437545    -0.02700
C766        C  0.56632636  0.76944995  0.97716599    -0.00100
C767        C  0.57096371  0.78099844  0.52478271    -0.23000
C768        C  0.56909592  0.75933565  0.55315387    -0.23200
C769        C  0.55963632  0.73459983  0.53345330    -0.00200
H770        H  0.57610664  0.80368807  0.53020357     0.13500
H771        H  0.57297211  0.76167580  0.58490302     0.13600
N772        N  0.46573378  0.26981742  0.50173212    -0.02700
C773        C  0.46076554  0.24078948  0.50645532    -0.00100
C774        C  0.44176661  0.22856503  0.97334653    -0.23000
C775        C  0.44208403  0.25122927  0.94639653    -0.23200
C776        C  0.45172457  0.27540052  0.96707920    -0.00200
H777        H  0.43596136  0.20621430  0.96672881     0.13500
H778        H  0.43636639  0.25010311  0.91502757     0.13600
N779        N  0.24567138  0.45145740  0.50433876    -0.02700
C780        C  0.27455960  0.44707469  0.51202569    -0.00100
C781        C  0.28609130  0.44001253  0.97804762    -0.23000
C782        C  0.26519839  0.43918717  0.94842386    -0.23200
C783        C  0.23898255  0.44665387  0.96596607    -0.00200
H784        H  0.30924866  0.43647821  0.97402577     0.13500
H785        H  0.26887617  0.43407078  0.91732144     0.13600
N786        N  0.77412732  0.54297456  0.98844639    -0.02700
C787        C  0.74605657  0.55184781  0.98311954    -0.00100
C788        C  0.72807601  0.55289507  0.51763760    -0.23000
C789        C  0.75111647  0.55320687  0.54424077    -0.23200
C790        C  0.77549400  0.54413827  0.52343571    -0.00200
H791        H  0.70548632  0.55762226  0.52445318     0.13500
H792        H  0.74991428  0.55796504  0.57583723     0.13600
O793        O  0.57551480  0.48175392  0.78367736    -0.80200
O794        O  0.44482013  0.48067377  0.72249057    -0.64800
O795        O  0.52694846  0.49394276  0.73240419    -1.11400
C796        C  0.50099886  0.57416804  0.81031147     1.06700
O797        O  0.43203233  0.52734353  0.71808270    -0.78100
O798        O  0.48001485  0.56011785  0.70782218    -0.65600
Ni799      Ni  0.55315246  0.46199449  0.74265378     1.34900
C800        C  0.50729072  0.56459800  0.70631382     0.85500
O801        O  0.49051168  0.45656345  0.68837120    -0.78600
O802        O  0.53469850  0.43808673  0.70263568    -0.88900
C803        C  0.42675534  0.50044518  0.71247460     0.85000
O804        O  0.53063436  0.44387441  0.78298856    -0.67100
O805        O  0.47914301  0.57549746  0.78669906    -0.86400
C806        C  0.50331800  0.44186628  0.78823665     0.85900
C807        C  0.51048700  0.43758219  0.68366015     1.07400
H808        H  0.47501876  0.50826351  0.79136828     0.39200
O809        O  0.48215027  0.51638803  0.76667413    -1.09000
O810        O  0.52520699  0.55333974  0.73138346    -0.65700
Ni811      Ni  0.52321734  0.52337935  0.77237226     1.26300
O812        O  0.48454079  0.45707080  0.76909473    -0.65900
O813        O  0.51803202  0.55229890  0.81229105    -0.78200
C814        C  0.58205468  0.50836420  0.78941489     0.85300
O815        O  0.56463533  0.52860578  0.77868492    -0.65400
Ni816      Ni  0.45767586  0.54909885  0.75287198     1.27400
Ni817      Ni  0.48595031  0.48633858  0.72755526     1.26100
H818        H  0.53319184  0.50280046  0.70773871     0.39800
O819        O  0.48642883  0.93660050  0.78396933    -0.80200
O820        O  0.48520155  0.06973916  0.72582165    -0.64800
O821        O  0.49612628  0.98694640  0.73545322    -1.11400
C822        C  0.57792455  0.01299408  0.81526199     1.06700
O823        O  0.53230414  0.07817626  0.71660176    -0.78100
O824        O  0.56972122  0.03297202  0.71545839    -0.65600
Ni825      Ni  0.46390329  0.96250452  0.74977008     1.34900
C826        C  0.57048549  0.00567837  0.70928813     0.85500
O827        O  0.45839096  0.02416332  0.69306995    -0.78600
O828        O  0.43705835  0.98381121  0.71591347    -0.88900
C829        C  0.50562563  0.08541910  0.71207385     0.85000
O830        O  0.45293601  0.98497231  0.79525955    -0.67100
O831        O  0.57793005  0.03708365  0.79614955    -0.86400
C832        C  0.44956748  0.01239259  0.79886740     0.85900
C833        C  0.43732908  0.00617943  0.69333290     1.07400
H834        H  0.51308762  0.03740022  0.79423698     0.39200
O835        O  0.52072058  0.03093648  0.76891679    -1.09000
O836        O  0.55572753  0.98753491  0.72970181    -0.65700
Ni837      Ni  0.52769301  0.98989975  0.77281363     1.26300
O838        O  0.46090726  0.03063336  0.77453609    -0.65900
O839        O  0.55848375  0.99363229  0.81071939    -0.78200
C840        C  0.51352492  0.93125526  0.78846697     0.85300
O841        O  0.53296264  0.94890075  0.77727439    -0.65400
Ni842      Ni  0.55307746  0.05593106  0.75690708     1.27400
Ni843      Ni  0.48929452  0.02819935  0.73123278     1.26100
H844        H  0.50342911  0.98003629  0.71002098     0.39800
O845        O  0.93548498  0.00486482  0.78024009    -0.80200
O846        O  0.06703658  0.01157663  0.71754473    -0.64800
O847        O  0.98572477  0.99571085  0.73281119    -1.11400
C848        C  0.01829270  0.91631071  0.81017239     1.06700
O849        O  0.08176018  0.96541555  0.71352255    -0.78100
O850        O  0.03442182  0.93005413  0.70638776    -0.65600
Ni851      Ni  0.96124147  0.02814401  0.74784287     1.34900
C852        C  0.00730526  0.92445622  0.70683190     0.85500
O853        O  0.01869996  0.03354704  0.68585480    -0.78600
O854        O  0.98224581  0.05657650  0.71619895    -0.88900
C855        C  0.08577883  0.99255114  0.70742016     0.85000
O856        O  0.98414160  0.03688966  0.79388344    -0.67100
O857        O  0.03907476  0.91532551  0.78512822    -0.86400
C858        C  0.01120644  0.04266627  0.79431446     0.85900
C859        C  0.00240006  0.05575261  0.69022557     1.07400
H860        H  0.04077632  0.98308766  0.78835227     0.39200
O861        O  0.03293420  0.97457821  0.76420042    -1.09000
O862        O  0.98968879  0.93589666  0.73186022    -0.65700
Ni863      Ni  0.99251998  0.96620066  0.77263614     1.26300
O864        O  0.02850188  0.03378090  0.76705862    -0.65900
O865        O  0.00065192  0.93765644  0.81246310    -0.78200
C866        C  0.93235776  0.97822493  0.79008725     0.85300
O867        O  0.95185370  0.95924133  0.78251676    -0.65400
Ni868      Ni  0.05814906  0.94262689  0.74979174     1.27400
Ni869      Ni  0.02630404  0.00436688  0.72520553     1.26100
H870        H  0.97790422  0.98712233  0.70869538     0.39800
O871        O  0.02944683  0.56001494  0.77719539    -0.80200
O872        O  0.02984831  0.42781261  0.71938990    -0.64800
O873        O  0.01869003  0.51041768  0.72820420    -1.11400
C874        C  0.93794792  0.48414227  0.80862408     1.06700
O875        O  0.98299524  0.41837394  0.71012816    -0.78100
O876        O  0.94607855  0.46450654  0.70726274    -0.65600
Ni877      Ni  0.05126570  0.53478435  0.74191709     1.34900
C878        C  0.94501252  0.49187501  0.70122564     0.85500
O879        O  0.05579354  0.47293332  0.68606737    -0.78600
O880        O  0.07765981  0.51351991  0.70779368    -0.88900
C881        C  0.00980494  0.41152991  0.70580712     0.85000
O882        O  0.06330190  0.51246781  0.78691416    -0.67100
O883        O  0.93759636  0.46047980  0.78848908    -0.86400
C884        C  0.06579051  0.48507042  0.79124668     0.85900
C885        C  0.07704734  0.49059623  0.68630772     1.07400
H886        H  0.00234917  0.45990518  0.78719373     0.39200
O887        O  0.99448746  0.46645698  0.76186995    -1.09000
O888        O  0.95927936  0.51001467  0.72256431    -0.65700
Ni889      Ni  0.98761760  0.50757139  0.76587790     1.26300
O890        O  0.05392326  0.46679641  0.76740541    -0.65900
O891        O  0.95722727  0.50366754  0.80401598    -0.78200
C892        C  0.00260673  0.56607650  0.78218797     0.85300
O893        O  0.98270535  0.54881689  0.77068205    -0.65400
Ni894      Ni  0.96219330  0.44141221  0.74952543     1.27400
Ni895      Ni  0.02537937  0.46918090  0.72415126     1.26100
H896        H  0.01106672  0.51724444  0.70286458     0.39800
C897        C  0.85579451  0.54460002  0.55345572    -0.01300
C898        C  0.85630641  0.52393428  0.58477541     0.07300
C899        C  0.83059522  0.50902129  0.59409864    -0.07200
C900        C  0.80446908  0.51489700  0.57370992     0.04800
C901        C  0.80364835  0.53601847  0.54298752    -0.14500
C902        C  0.82956244  0.55036526  0.53265343    -0.07800
C903        C  0.88278667  0.51783291  0.60961432     0.05700
C904        C  0.89120591  0.53798017  0.63901697    -0.08900
C905        C  0.91226333  0.53069776  0.66820344     0.00700
C906        C  0.92552519  0.50263187  0.66816376     0.00600
C907        C  0.91805174  0.48318199  0.63716139    -0.12500
C908        C  0.89693280  0.49048876  0.60827556     0.01000
C909        C  0.91804690  0.55176500  0.69928423     0.40300
C910        C  0.88950573  0.46927437  0.57803440     0.36900
C911        C  0.88183548  0.56005026  0.54220264     0.36700
C912        C  0.77871947  0.49885008  0.58485888     0.37400
N913        N  0.92247448  0.56874632  0.72415073    -0.43400
N914        N  0.88351535  0.45233023  0.55374330    -0.43800
N915        N  0.75800932  0.48611115  0.59375832    -0.41200
N916        N  0.90267577  0.57246914  0.53302506    -0.42600
H917        H  0.82914346  0.56662362  0.50912507     0.13600
H918        H  0.83085808  0.49302451  0.61799628     0.10100
H919        H  0.88012947  0.55892970  0.64045280     0.11100
H920        H  0.92815818  0.46174731  0.63603675     0.16900
C921        C  0.82910122  0.54157922  0.90733558    -0.01300
C922        C  0.84001758  0.51279757  0.91027616     0.07300
C923        C  0.82690283  0.49320718  0.93690122    -0.07200
C924        C  0.80383465  0.50231137  0.96130833     0.04800
C925        C  0.79360432  0.53130373  0.95904995    -0.14500
C926        C  0.80612249  0.55055643  0.93171310    -0.07800
C927        C  0.86554053  0.50322881  0.88642268     0.05700
C928        C  0.89279287  0.51599698  0.89387435    -0.08900
C929        C  0.91697147  0.50935796  0.87009049     0.00700
C930        C  0.91401804  0.48965280  0.83766273     0.00600
C931        C  0.88689341  0.47595958  0.83152704    -0.12500
C932        C  0.86282483  0.48254460  0.85556229     0.01000
C933        C  0.94451981  0.52273171  0.88033918     0.40300
C934        C  0.83522720  0.46872410  0.84702277     0.36900
C935        C  0.84129073  0.56237403  0.87977511     0.36700
C936        C  0.79138368  0.48193904  0.98917197     0.37400
N937        N  0.96655541  0.53341154  0.88880509    -0.43400
N938        N  0.81306191  0.45767272  0.84037272    -0.43800
N939        N  0.78141118  0.46557003  0.01152064    -0.41200
N940        N  0.85097806  0.57908391  0.85767013    -0.42600
H941        H  0.79871763  0.57305403  0.93080161     0.13600
H942        H  0.83515939  0.47104611  0.93925203     0.10100
H943        H  0.89506152  0.53148498  0.91819267     0.11100
H944        H  0.88412512  0.46074631  0.80701511     0.16900
C945        C  0.70924968  0.55136502  0.88064556    -0.01300
C946        C  0.68412183  0.53448702  0.88821912     0.07300
C947        C  0.68117777  0.52137216  0.92579532    -0.07200
C948        C  0.70194905  0.52570720  0.95605539     0.04800
C949        C  0.72637932  0.54371528  0.94931530    -0.14500
C950        C  0.73000450  0.55605701  0.91125305    -0.07800
C951        C  0.66042888  0.52959454  0.85802082     0.05700
C952        C  0.65642240  0.50136428  0.84305068    -0.08900
C953        C  0.63176238  0.49412475  0.82005825     0.00700
C954        C  0.61007496  0.51557861  0.81111141     0.00600
C955        C  0.61485813  0.54426391  0.82498118    -0.12500
C956        C  0.63950533  0.55127005  0.84847051     0.01000
C957        C  0.62929803  0.46411864  0.80734028     0.40300
C958        C  0.64190922  0.58037086  0.86461760     0.36900
C959        C  0.71444267  0.56363688  0.84168291     0.36700
C960        C  0.69233994  0.50008984  0.48562964     0.37400
N961        N  0.62744692  0.43996800  0.79756248    -0.43400
N962        N  0.64378292  0.60364463  0.87777200    -0.43800
N963        N  0.68928070  0.48600826  0.51397934    -0.41200
N964        N  0.71894553  0.57334678  0.81043413    -0.42600
H965        H  0.74856588  0.56997963  0.90566587     0.13600
H966        H  0.66227848  0.50790163  0.93166967     0.10100
H967        H  0.67226147  0.48453085  0.85064269     0.11100
H968        H  0.59873468  0.56111361  0.81887731     0.16900
C969        C  0.12456354  0.44119092  0.84406961    -0.01300
C970        C  0.13035940  0.45857259  0.87784250     0.07300
C971        C  0.11242628  0.48264521  0.88585762    -0.07200
C972        C  0.08998178  0.49069497  0.85937758     0.04800
C973        C  0.08509427  0.47428180  0.82405776    -0.14500
C974        C  0.10187552  0.44891979  0.81772661    -0.07800
C975        C  0.15763402  0.45485502  0.90132972     0.05700
C976        C  0.18274811  0.46863698  0.88734284    -0.08900
C977        C  0.20925418  0.46616439  0.90794151     0.00700
C978        C  0.21092206  0.44978580  0.94370770     0.00600
C979        C  0.18565047  0.43588894  0.95769460    -0.12500
C980        C  0.15910191  0.43822950  0.93666997     0.01000
C981        C  0.23420079  0.48125891  0.89200004     0.40300
C982        C  0.13386482  0.42291949  0.95118423     0.36900
C983        C  0.14281696  0.41637255  0.83476383     0.36700
C984        C  0.07296360  0.51639326  0.86876663     0.37400
N985        N  0.25419029  0.49321426  0.87898340    -0.43400
N986        N  0.11362420  0.41054884  0.96266972    -0.43800
N987        N  0.05948418  0.53707521  0.87630908    -0.41200
N988        N  0.15762802  0.39657263  0.82750009    -0.42600
H989        H  0.09858097  0.43615713  0.79081692     0.13600
H990        H  0.11694634  0.49603857  0.91186829     0.10100
H991        H  0.18157615  0.48141980  0.86008498     0.11100
H992        H  0.18675088  0.42274093  0.98457963     0.16900
C993        C  0.12166919  0.46660218  0.59749478    -0.01300
C994        C  0.15043046  0.47081931  0.61145928     0.07300
C995        C  0.15509888  0.48114774  0.65032145    -0.07200
C996        C  0.13150765  0.48779247  0.67513183     0.04800
C997        C  0.10258324  0.48394252  0.66102459    -0.14500
C998        C  0.09803514  0.47288634  0.62239465    -0.07800
C999        C  0.17586853  0.46584301  0.58526578     0.05700
C1000       C  0.18204568  0.48665317  0.55591652    -0.08900
C1001       C  0.20548797  0.48270408  0.52994974     0.00700
C1002       C  0.22296953  0.45733998  0.53282369     0.00600
C1003       C  0.21726011  0.43686736  0.56290880    -0.12500
C1004       C  0.19385366  0.44092708  0.58910625     0.01000
C1005       C  0.21014417  0.50599038  0.00305111     0.40300
C1006       C  0.18809026  0.41892545  0.61884244     0.36900
C1007       C  0.11596466  0.45597075  0.55766221     0.36700
C1008       C  0.13763478  0.49757045  0.71532529     0.37400
N1009       N  0.21490749  0.52390119  0.97964790    -0.43400
N1010       N  0.18338527  0.40128094  0.64264856    -0.43800
N1011       N  0.14253776  0.50536110  0.74754348    -0.41200
N1012       N  0.11139246  0.44754845  0.52567805    -0.42600
H1013       H  0.07596309  0.46961328  0.61141073     0.13600
H1014       H  0.17724639  0.48426770  0.66111629     0.10100
H1015       H  0.16848197  0.50604883  0.55336708     0.11100
H1016       H  0.23070602  0.41739433  0.56517074     0.16900
C1017       C  0.30095535  0.48330951  0.60768593    -0.01300
C1018       C  0.32667312  0.46720435  0.61601464     0.07300
C1019       C  0.33218275  0.44171967  0.59415055    -0.07200
C1020       C  0.31407778  0.43354232  0.56226342     0.04800
C1021       C  0.28999496  0.45133404  0.55106519    -0.14500
C1022       C  0.28317281  0.47560272  0.57503905    -0.07800
C1023       C  0.34971430  0.47762352  0.64429447     0.05700
C1024       C  0.35956235  0.45912029  0.67514800    -0.08900
C1025       C  0.38407704  0.46632468  0.69854867     0.00700
C1026       C  0.39928904  0.49252404  0.69119988     0.00600
C1027       C  0.38871630  0.51147959  0.66134905    -0.12500
C1028       C  0.36450497  0.50417205  0.63772659     0.01000
C1029       C  0.39288188  0.44672303  0.73023065     0.40300
C1030       C  0.35656145  0.52346239  0.60523866     0.36900
C1031       C  0.29272906  0.50815932  0.63166662     0.36700
C1032       C  0.31781227  0.40798392  0.04533793     0.37400
N1033       N  0.39996901  0.43114223  0.75576771    -0.43400
N1034       N  0.35012948  0.53896138  0.57929716    -0.43800
N1035       N  0.32345879  0.38603300  0.03008314    -0.41200
N1036       N  0.28612410  0.52808991  0.65086116    -0.42600
H1037       H  0.26487938  0.48956771  0.56719104     0.13600
H1038       H  0.35151222  0.42879963  0.60088262     0.10100
H1039       H  0.34840228  0.43866743  0.68038287     0.11100
H1040       H  0.40023560  0.53158984  0.65514237     0.16900
C1041       C  0.51268550  0.14261009  0.63072618    -0.01300
C1042       C  0.48773471  0.16039452  0.63621866     0.07300
C1043       C  0.46873610  0.15369151  0.66776487    -0.07200
C1044       C  0.47404199  0.12970457  0.69316971     0.04800
C1045       C  0.49892180  0.11185431  0.68741667    -0.14500
C1046       C  0.51821099  0.11908133  0.65647414    -0.07800
C1047       C  0.47963246  0.18400805  0.60709594     0.05700
C1048       C  0.45280249  0.18210785  0.58677773    -0.08900
C1049       C  0.44552985  0.20148823  0.55575287     0.00700
C1050       C  0.46555480  0.22318141  0.54369744     0.00600
C1051       C  0.49176737  0.22593820  0.56540833    -0.12500
C1052       C  0.49857780  0.20719733  0.59739467     0.01000
C1053       C  0.40549504  0.19850550  0.03705282     0.40300
C1054       C  0.52515636  0.21230720  0.61969625     0.36900
C1055       C  0.53217498  0.14684308  0.59752084     0.36700
C1056       C  0.45398213  0.12434333  0.72534960     0.37400
N1057       N  0.38293817  0.19740681  0.02135309    -0.43400
N1058       N  0.54649268  0.21660175  0.63740117    -0.43800
N1059       N  0.43793636  0.12009009  0.75121912    -0.41200
N1060       N  0.54790234  0.15021546  0.57104314    -0.42600
H1061       H  0.53733091  0.10561377  0.65137678     0.13600
H1062       H  0.44945847  0.16708633  0.67226486     0.10100
H1063       H  0.43774633  0.16481668  0.59441900     0.11100
H1064       H  0.50772192  0.24185190  0.55648017     0.16900
C1065       C  0.49002048  0.34154861  0.92627348    -0.01300
C1066       C  0.46765646  0.35498503  0.90337408     0.07300
C1067       C  0.43910418  0.34413187  0.90584266    -0.07200
C1068       C  0.43313106  0.31924869  0.92874720     0.04800
C1069       C  0.45605836  0.30444665  0.94866803    -0.14500
C1070       C  0.48420827  0.31616734  0.94786025    -0.07800
C1071       C  0.47478173  0.37761395  0.87310178     0.05700
C1072       C  0.49612645  0.37071615  0.84481412    -0.08900
C1073       C  0.50582342  0.39142985  0.81757048     0.00700
C1074       C  0.49309085  0.41959445  0.81682888     0.00600
C1075       C  0.47041258  0.42610288  0.84349632    -0.12500
C1076       C  0.46150625  0.40550401  0.87202042     0.01000
C1077       C  0.52896396  0.38295702  0.79079966     0.40300
C1078       C  0.43981226  0.41391103  0.90089823     0.36900
C1079       C  0.51934605  0.35301330  0.92718666     0.36700
C1080       C  0.40341335  0.30913069  0.93130479     0.37400
N1081       N  0.54779281  0.37604137  0.76993542    -0.43400
N1082       N  0.42248490  0.42069128  0.92414027    -0.43800
N1083       N  0.37960763  0.30103638  0.93377930    -0.41200
N1084       N  0.54278621  0.36230972  0.92773575    -0.42600
H1085       H  0.50204493  0.30478794  0.96253462     0.13600
H1086       H  0.42170997  0.35436836  0.88865958     0.10100
H1087       H  0.50583262  0.34906128  0.84466329     0.11100
H1088       H  0.46040934  0.44760399  0.84299379     0.16900
C1089       C  0.50888847  0.32078527  0.56552234    -0.01300
C1090       C  0.48650841  0.33638738  0.58517061     0.07300
C1091       C  0.45725777  0.32860292  0.57825841    -0.07200
C1092       C  0.45019928  0.30607528  0.55175029     0.04800
C1093       C  0.47254561  0.29056162  0.53246901    -0.14500
C1094       C  0.50171734  0.29775137  0.54003493    -0.07800
C1095       C  0.49288842  0.36211587  0.61071552     0.05700
C1096       C  0.48005355  0.38907900  0.60078818    -0.08900
C1097       C  0.48552346  0.41408222  0.62363428     0.00700
C1098       C  0.50483660  0.41249188  0.65672587     0.00600
C1099       C  0.51759571  0.38541294  0.66653600    -0.12500
C1100       C  0.51131515  0.36027273  0.64454257     0.01000
C1101       C  0.47123623  0.44097508  0.61202673     0.40300
C1102       C  0.52303872  0.33270413  0.65838578     0.36900
C1103       C  0.53917456  0.32908601  0.56883057     0.36700
C1104       C  0.41995127  0.29986987  0.54326229     0.37400
N1105       N  0.45959551  0.46243191  0.60274815    -0.43400
N1106       N  0.53249773  0.31065735  0.66949519    -0.43800
N1107       N  0.39572797  0.29490601  0.53612560    -0.41200
N1108       N  0.56348452  0.33559841  0.57149057    -0.42600
H1109       H  0.51884464  0.28625369  0.52422828     0.13600
H1110       H  0.43990850  0.34064940  0.59283530     0.10100
H1111       H  0.46569830  0.39059434  0.57495477     0.11100
H1112       H  0.53176995  0.38359139  0.69244650     0.16900
C1113       C  0.55017172  0.88414325  0.86654262    -0.01300
C1114       C  0.53915554  0.85605351  0.85790422     0.07300
C1115       C  0.51971081  0.85271870  0.82558679    -0.07200
C1116       C  0.51129780  0.87675003  0.80203603     0.04800
C1117       C  0.52276454  0.90466037  0.81038864    -0.14500
C1118       C  0.54248233  0.90786584  0.84228477    -0.07800
C1119       C  0.54634568  0.83041617  0.88367993     0.05700
C1120       C  0.52365971  0.81611497  0.90363503    -0.08900
C1121       C  0.52968295  0.79452925  0.93225637     0.00700
C1122       C  0.55888370  0.78702963  0.94139057     0.00600
C1123       C  0.58148425  0.80019131  0.91999015    -0.12500
C1124       C  0.57543632  0.82127408  0.89071909     0.01000
C1125       C  0.50232838  0.78259606  0.46537892     0.40300
C1126       C  0.59943331  0.83349259  0.86866839     0.36900
C1127       C  0.56793312  0.88964515  0.90152745     0.36700
C1128       C  0.49151700  0.87206762  0.76894441     0.37400
N1129       N  0.48281119  0.77285713  0.48252061    -0.43400
N1130       N  0.61863925  0.84334622  0.85100580    -0.43800
N1131       N  0.47573456  0.86816120  0.74236351    -0.41200
N1132       N  0.58206807  0.89414568  0.92961365    -0.42600
H1133       H  0.55097185  0.92931395  0.84932785     0.13600
H1134       H  0.51095925  0.83130173  0.81891575     0.10100
H1135       H  0.50124152  0.82284008  0.89824817     0.11100
H1136       H  0.60396607  0.79452884  0.92693309     0.16900
C1137       C  0.56126703  0.65564237  0.56673926    -0.01300
C1138       C  0.53874110  0.65535268  0.59518917     0.07300
C1139       C  0.52233720  0.68075623  0.60184762    -0.07200
C1140       C  0.52860001  0.70655345  0.58143310     0.04800
C1141       C  0.55162062  0.70714005  0.55372243    -0.14500
C1142       C  0.56745043  0.68148009  0.54600164    -0.07800
C1143       C  0.53258091  0.62933030  0.61992925     0.05700
C1144       C  0.55131871  0.62276538  0.65194967    -0.08900
C1145       C  0.54422636  0.60109546  0.67972242     0.00700
C1146       C  0.51803603  0.58502477  0.67511558     0.00600
C1147       C  0.49998059  0.59096603  0.64177952    -0.12500
C1148       C  0.50688661  0.61306787  0.61460185     0.01000
C1149       C  0.56312857  0.59770168  0.71413194     0.40300
C1150       C  0.48691675  0.61935703  0.58210747     0.36900
C1151       C  0.57815345  0.62969162  0.55851311     0.36700
C1152       C  0.51081937  0.73205577  0.58892470     0.37400
N1153       N  0.57820983  0.59520934  0.74181236    -0.43400
N1154       N  0.47095737  0.62459669  0.55610288    -0.43800
N1155       N  0.49654966  0.75249447  0.59480824    -0.41200
N1156       N  0.59157714  0.60878503  0.55203154    -0.42600
H1157       H  0.59187615  0.68493000  0.02775192     0.13600
H1158       H  0.50487386  0.68049761  0.62355103     0.10100
H1159       H  0.57086658  0.63567631  0.65636003     0.11100
H1160       H  0.47984067  0.57897859  0.63756982     0.16900
C1161       C  0.52393981  0.61894979  0.89945879    -0.01300
C1162       C  0.52121660  0.64758330  0.88442641     0.07300
C1163       C  0.51175798  0.65208317  0.84508162    -0.07200
C1164       C  0.50477512  0.62845789  0.82054109     0.04800
C1165       C  0.50731817  0.59968572  0.83556490    -0.14500
C1166       C  0.51708393  0.59524464  0.87491706    -0.07800
C1167       C  0.52912542  0.67319702  0.90876847     0.05700
C1168       C  0.55520634  0.68774210  0.90049873    -0.08900
C1169       C  0.56429302  0.71118034  0.92413829     0.00700
C1170       C  0.54680283  0.72069327  0.95611713     0.00600
C1171       C  0.52012147  0.70676230  0.96327750    -0.12500
C1172       C  0.51127944  0.68299868  0.94009489     0.01000
C1173       C  0.59251352  0.72377805  0.91669309     0.40300
C1174       C  0.48411479  0.66869535  0.94921622     0.36900
C1175       C  0.53428330  0.61340231  0.93960366     0.36700
C1176       C  0.49655758  0.63436689  0.77956023     0.37400
N1177       N  0.61523394  0.73367151  0.91054813    -0.43400
N1178       N  0.46242575  0.65705167  0.95644137    -0.43800
N1179       N  0.49007035  0.63916030  0.74672991    -0.41200
N1180       N  0.54254227  0.60891741  0.97177604    -0.42600
H1181       H  0.51930583  0.57322742  0.88650900     0.13600
H1182       H  0.51010747  0.67414263  0.83345885     0.10100
H1183       H  0.56893691  0.68009904  0.87636306     0.11100
H1184       H  0.50653936  0.71404719  0.98764242     0.16900
C1185       C  0.14712576  0.99112133  0.63180890    -0.01300
C1186       C  0.16161128  0.01788900  0.63853665     0.07300
C1187       C  0.15126841  0.03626203  0.66906741    -0.07200
C1188       C  0.12702263  0.02847609  0.69237583     0.04800
C1189       C  0.11257782  0.00166503  0.68549070    -0.14500
C1190       C  0.12336963  0.98312058  0.65554379    -0.07800
C1191       C  0.18556084  0.02814518  0.61161288     0.05700
C1192       C  0.18152366  0.05423539  0.59025066    -0.08900
C1193       C  0.20082999  0.06243174  0.55992919     0.00700
C1194       C  0.22472516  0.04416809  0.54985431     0.00600
C1195       C  0.23019384  0.01940475  0.57360437    -0.12500
C1196       C  0.21116090  0.01155421  0.60455732     0.01000
C1197       C  0.19563579  0.09096653  0.05035899     0.40300
C1198       C  0.21802232  0.98596148  0.62801790     0.36900
C1199       C  0.15490568  0.97218187  0.59907339     0.36700
C1200       C  0.11789213  0.04812617  0.72363011     0.37400
N1201       N  0.19238443  0.11443456  0.03826780    -0.43400
N1202       N  0.22348586  0.96535496  0.64667036    -0.43800
N1203       N  0.11071833  0.06391318  0.74872335    -0.41200
N1204       N  0.16110557  0.95692552  0.57290977    -0.42600
H1205       H  0.11237925  0.96267372  0.64941405     0.13600
H1206       H  0.16201451  0.05694536  0.67443491     0.10100
H1207       H  0.16244032  0.06764918  0.59602794     0.13500
H1208       H  0.24833839  0.00510744  0.56663397     0.16900
C1209       C  0.38976513  0.05626498  0.84966638    -0.01300
C1210       C  0.38246275  0.03816246  0.88218822     0.07300
C1211       C  0.40028032  0.01395363  0.89069938    -0.07200
C1212       C  0.42372380  0.00640873  0.86581687     0.04800
C1213       C  0.42960212  0.02310549  0.83107210    -0.14500
C1214       C  0.41313063  0.04872391  0.82457585    -0.07800
C1215       C  0.35471532  0.04214723  0.90488844     0.05700
C1216       C  0.32859509  0.03258886  0.88737540    -0.08900
C1217       C  0.30204026  0.03426870  0.90791584     0.00700
C1218       C  0.30091512  0.04651862  0.94678604     0.00600
C1219       C  0.32722982  0.05622825  0.96422515    -0.12500
C1220       C  0.35397103  0.05367542  0.94391894     0.01000
C1221       C  0.27658989  0.02184883  0.88889171     0.40300
C1222       C  0.38041927  0.06315229  0.96345618     0.36900
C1223       C  0.37316276  0.08236702  0.84093801     0.36700
C1224       C  0.44116488  0.98123945  0.87664887     0.37400
N1225       N  0.25634416  0.01173803  0.87346057    -0.43400
N1226       N  0.40178761  0.07061251  0.97889179    -0.43800
N1227       N  0.45513319  0.96110681  0.88551490    -0.41200
N1228       N  0.36006440  0.10343686  0.83393254    -0.42600
H1229       H  0.41742479  0.06210876  0.79857925     0.13600
H1230       H  0.39515982  0.00023728  0.91608784     0.10100
H1231       H  0.32909620  0.02308141  0.85772041     0.11100
H1232       H  0.32698283  0.06610016  0.99360086     0.16900
C1233       C  0.32357585  0.05419566  0.58750063    -0.01300
C1234       C  0.33934119  0.02769060  0.58632734     0.07300
C1235       C  0.33075385  0.00580659  0.55955140    -0.07200
C1236       C  0.30727473  0.01036646  0.53326647     0.04800
C1237       C  0.29207877  0.03717855  0.53349400    -0.14500
C1238       C  0.30008238  0.05876056  0.56110231    -0.07800
C1239       C  0.36461913  0.02220853  0.61322079     0.05700
C1240       C  0.36054669  0.00548269  0.64766482    -0.08900
C1241       C  0.38375143  0.99989513  0.67408426     0.00700
C1242       C  0.41187170  0.01139704  0.66623791     0.00600
C1243       C  0.41575471  0.02812541  0.63142721    -0.12500
C1244       C  0.39252632  0.03330230  0.60484109     0.01000
C1245       C  0.37766545  0.98279020  0.70927851     0.40300
C1246       C  0.39794865  0.04936360  0.56858428     0.36900
C1247       C  0.33109010  0.07677450  0.61576002     0.36700
C1248       C  0.29714377  0.98791302  0.00011310     0.37400
N1249       N  0.37278506  0.96896636  0.73736407    -0.43400
N1250       N  0.40235554  0.06203876  0.53937273    -0.43800
N1251       N  0.29124477  0.97178278  0.97476725    -0.41200
N1252       N  0.33717203  0.09471393  0.63862461    -0.42600
H1253       H  0.28828198  0.07932268  0.56139522     0.13600
H1254       H  0.34250282  0.98520237  0.55912336     0.10100
H1255       H  0.33905329  0.99686430  0.65399114     0.11100
H1256       H  0.43712264  0.03677571  0.62451381     0.16900
C1257       C  0.83398724  0.97474241  0.93044945    -0.01300
C1258       C  0.83312532  0.95822070  0.89487052     0.07300
C1259       C  0.81025888  0.93822123  0.88935821    -0.07200
C1260       C  0.78881659  0.93424562  0.91888104     0.04800
C1261       C  0.79013818  0.95037294  0.95482120    -0.14500
C1262       C  0.81277388  0.97062336  0.95990235    -0.07800
C1263       C  0.85632405  0.96138446  0.86383677     0.05700
C1264       C  0.87803831  0.93982352  0.86005458    -0.08900
C1265       C  0.90215539  0.94378466  0.83467867     0.00700
C1266       C  0.90516353  0.97011969  0.81264171     0.00600
C1267       C  0.88226654  0.99079817  0.81495099    -0.12500
C1268       C  0.85815135  0.98659752  0.83993529     0.01000
C1269       C  0.92360572  0.92065306  0.83294620     0.40300
C1270       C  0.83555845  0.00865798  0.84093528     0.36900
C1271       C  0.85711726  0.99532227  0.93812730     0.36700
C1272       C  0.76675736  0.91236757  0.91245231     0.37400
N1273       N  0.94049168  0.90182077  0.83153768    -0.43400
N1274       N  0.81734558  0.02623387  0.84171589    -0.43800
N1275       N  0.74921611  0.89470706  0.90692796    -0.41200
N1276       N  0.87560782  0.01185320  0.94438421    -0.42600
H1277       H  0.79015796  0.99402476  0.45720387     0.13600
H1278       H  0.80941673  0.92538515  0.86218552     0.10100
H1279       H  0.87659700  0.92015687  0.87796109     0.11100
H1280       H  0.88339985  0.01082842  0.79780069     0.16900
C1281       C  0.68977643  0.97788918  0.61044408    -0.01300
C1282       C  0.66126683  0.96896267  0.60044937     0.07300
C1283       C  0.65673856  0.95243327  0.56571824    -0.07200
C1284       C  0.68021736  0.94461817  0.54106328     0.04800
C1285       C  0.70872280  0.95425620  0.55045859    -0.14500
C1286       C  0.71309358  0.97063836  0.58546714    -0.07800
C1287       C  0.63608835  0.97644460  0.62634440     0.05700
C1288       C  0.61969076  0.00159608  0.61787169    -0.08900
C1289       C  0.59734766  0.01082506  0.64343128     0.00700
C1290       C  0.59091458  0.99459372  0.67828958     0.00600
C1291       C  0.60665450  0.96867625  0.68571660    -0.12500
C1292       C  0.62922323  0.95969085  0.66028739     0.01000
C1293       C  0.58133002  0.03696421  0.63292708     0.40300
C1294       C  0.64571625  0.93371610  0.67015614     0.36900
C1295       C  0.69565447  0.99415115  0.64651934     0.36700
C1296       C  0.67466541  0.92492829  0.50833204     0.37400
N1297       N  0.56856969  0.05791525  0.62428597    -0.43400
N1298       N  0.65906176  0.91295213  0.67797482    -0.43800
N1299       N  0.66983187  0.90883531  0.48252233    -0.41200
N1300       N  0.70041193  0.00702022  0.67555320    -0.42600
H1301       H  0.73492093  0.97776946  0.59339737     0.13600
H1302       H  0.63490002  0.94500163  0.55844426     0.10100
H1303       H  0.62482478  0.01441893  0.59162701     0.11100
H1304       H  0.60224205  0.95609426  0.71242151     0.16900
C1305       C  0.67979015  0.94742802  0.92243382    -0.01300
C1306       C  0.67696791  0.97723065  0.91209363     0.07300
C1307       C  0.69759680  0.99720692  0.92689753    -0.07200
C1308       C  0.72028559  0.98796307  0.95227492     0.04800
C1309       C  0.72211070  0.95853701  0.96390890    -0.14500
C1310       C  0.70186800  0.93851111  0.94883238    -0.07800
C1311       C  0.65175385  0.98804637  0.88787559     0.05700
C1312       C  0.62333040  0.98202708  0.90091115    -0.08900
C1313       C  0.59890908  0.99057601  0.87838539     0.00700
C1314       C  0.60265003  0.00630967  0.84250401     0.00600
C1315       C  0.63102944  0.01336448  0.83028122    -0.12500
C1316       C  0.65549520  0.00409831  0.85229934     0.01000
C1317       C  0.57030703  0.98309150  0.89297675     0.40300
C1318       C  0.68414545  0.00995614  0.83659637     0.36900
C1319       C  0.66058794  0.92554609  0.90593765     0.36700
C1320       C  0.74068334  0.00910809  0.96758660     0.37400
N1321       N  0.54740699  0.97699809  0.90462743    -0.43400
N1322       N  0.70709260  0.01461022  0.82392864    -0.43800
N1323       N  0.75710409  0.02605261  0.97984676    -0.41200
N1324       N  0.64529594  0.90801281  0.89252954    -0.42600
H1325       H  0.72032561  0.92458693  0.42296512     0.13600
H1326       H  0.69553641  0.02015971  0.91944495     0.10100
H1327       H  0.62022669  0.97023485  0.92864386     0.11100
H1328       H  0.63417590  0.02495406  0.80239891     0.16900
C1329       C  0.06428178  0.13640007  0.93359512    -0.01300
C1330       C  0.04337006  0.13501921  0.90254738     0.07300
C1331       C  0.02595039  0.15951321  0.89429490    -0.07200
C1332       C  0.02932034  0.18537381  0.91598832     0.04800
C1333       C  0.05045026  0.18707747  0.94681378    -0.14500
C1334       C  0.06758425  0.16232863  0.95564970    -0.07800
C1335       C  0.03897661  0.10848242  0.87782589     0.05700
C1336       C  0.01795143  0.08809931  0.88943587    -0.08900
C1337       C  0.00944940  0.06547638  0.86367612     0.00700
C1338       C  0.02251667  0.06275330  0.82561555     0.00600
C1339       C  0.04478872  0.08227604  0.81519355    -0.12500
C1340       C  0.05271572  0.10523754  0.84057247     0.01000
C1341       C  0.98677174  0.04594741  0.87674808     0.40300
C1342       C  0.07365826  0.12627133  0.82662219     0.36900
C1343       C  0.08286600  0.11170719  0.94261228     0.36700
C1344       C  0.01036577  0.20971774  0.90653683     0.37400
N1345       N  0.96846912  0.03045805  0.88722841    -0.43400
N1346       N  0.09029064  0.14315763  0.81506378    -0.43800
N1347       N  0.99513434  0.22920775  0.89900853    -0.41200
N1348       N  0.09779163  0.09188459  0.94965709    -0.42600
H1349       H  0.08398272  0.16347392  0.97908745     0.13600
H1350       H  0.00969764  0.15841372  0.87062398     0.10100
H1351       H  0.00722508  0.09067407  0.91799902     0.11100
H1352       H  0.05473644  0.08082751  0.78596883     0.16900
C1353       C  0.05629849  0.16344716  0.58361514    -0.01300
C1354       C  0.02686251  0.15570997  0.58939981     0.07300
C1355       C  0.00479984  0.17149262  0.56941668    -0.07200
C1356       C  0.01190774  0.19400976  0.54275763     0.04800
C1357       C  0.04134629  0.20114876  0.53640728    -0.14500
C1358       C  0.06326139  0.18607780  0.55734614    -0.07800
C1359       C  0.01906694  0.13012511  0.61438376     0.05700
C1360       C  0.00869353  0.13451740  0.65319079    -0.08900
C1361       C  0.00287729  0.11074172  0.67835322     0.00700
C1362       C  0.00742168  0.08180342  0.66457821     0.00600
C1363       C  0.01766641  0.07762620  0.62551043    -0.12500
C1364       C  0.02325011  0.10140302  0.60041235     0.01000
C1365       C  0.99367214  0.11684705  0.71867806     0.40300
C1366       C  0.03302651  0.09587741  0.56020886     0.36900
C1367       C  0.07972192  0.14793190  0.60354638     0.36700
C1368       C  0.99043199  0.20000288  0.01565911     0.37400
N1369       N  0.98635046  0.12186133  0.75097487    -0.43400
N1370       N  0.04073801  0.09153321  0.52791608    -0.43800
N1371       N  0.97170068  0.21032531  0.99698953    -0.41200
N1372       N  0.09849208  0.13542440  0.61943137    -0.42600
H1373       H  0.08591693  0.19146921  0.55201525     0.13600
H1374       H  0.98214870  0.16555688  0.57363350     0.10100
H1375       H  0.00573867  0.15661162  0.66411764     0.11100
H1376       H  0.02111597  0.05566623  0.61436861     0.16900
C1377       C  0.05297242  0.28833997  0.60946715    -0.01300
C1378       C  0.03253382  0.31113819  0.60298056     0.07300
C1379       C  0.01721132  0.31207397  0.56653044    -0.07200
C1380       C  0.02244152  0.29142139  0.53657652     0.04800
C1381       C  0.04366877  0.26933532  0.54244924    -0.14500
C1382       C  0.05834390  0.26766283  0.57928998    -0.07800
C1383       C  0.02733237  0.33488782  0.63284097     0.05700
C1384       C  0.05027610  0.35363069  0.64344644    -0.08900
C1385       C  0.04558013  0.37812949  0.66794973     0.00700
C1386       C  0.01719639  0.38440910  0.68261057     0.00600
C1387       C  0.99453819  0.36485781  0.67289703    -0.12500
C1388       C  0.99930934  0.34053526  0.64829578     0.01000
C1389       C  0.07024426  0.39678606  0.67595684     0.40300
C1390       C  0.97495946  0.32175994  0.63899921     0.36900
C1391       C  0.06865112  0.28569999  0.64680697     0.36700
C1392       C  0.00124165  0.28643532  0.01546942     0.37400
N1393       N  0.09021315  0.41152202  0.68216751    -0.43400
N1394       N  0.95547651  0.30674702  0.63129753    -0.43800
N1395       N  0.98590108  0.28782232  0.98792146    -0.41200
N1396       N  0.08123630  0.28350450  0.67674813    -0.42600
H1397       H  0.07472993  0.25082574  0.58398473     0.13600
H1398       H  0.00143427  0.32938974  0.56115388     0.10100
H1399       H  0.07183794  0.34965188  0.63136719     0.11100
H1400       H  0.97268714  0.36878809  0.68395700     0.16900
C1401       C  0.96301763  0.88607256  0.62601552    -0.01300
C1402       C  0.97717686  0.85862491  0.62447280     0.07300
C1403       C  0.00045255  0.85298159  0.65079968    -0.07200
C1404       C  0.01039241  0.87418933  0.67741299     0.04800
C1405       C  0.99654389  0.90179740  0.67890134    -0.14500
C1406       C  0.97252976  0.90729681  0.65357803    -0.07800
C1407       C  0.97011541  0.83562348  0.59450037     0.05700
C1408       C  0.99266993  0.82631757  0.56937877    -0.08900
C1409       C  0.99059439  0.80033965  0.54770111     0.00700
C1410       C  0.96465883  0.78381389  0.54879865     0.00600
C1411       C  0.94129004  0.79408589  0.57207416    -0.12500
C1412       C  0.94396545  0.81948661  0.59534088     0.01000
C1413       C  0.01389748  0.79175772  0.02899037     0.40300
C1414       C  0.92067584  0.82705354  0.62228064     0.36900
C1415       C  0.93955633  0.89330527  0.59875437     0.36700
C1416       C  0.03482316  0.86676445  0.70306012     0.37400
N1417       N  0.03576741  0.78273285  0.01699169    -0.43400
N1418       N  0.90203528  0.83303989  0.64397856    -0.43800
N1419       N  0.05451780  0.86053864  0.72321262    -0.41200
N1420       N  0.92070172  0.89913660  0.57694846    -0.42600
H1421       H  0.96180468  0.92843338  0.65450026     0.13600
H1422       H  0.01131842  0.83188531  0.65002209     0.10100
H1423       H  0.01309606  0.83822030  0.56939017     0.11100
H1424       H  0.92146795  0.78131484  0.57380849     0.16900
C1425       C  0.00669782  0.83800779  0.84131013    -0.01300
C1426       C  0.99856261  0.84102813  0.88167998     0.07300
C1427       C  0.99911990  0.86890151  0.89922408    -0.07200
C1428       C  0.00592533  0.89368469  0.87674833     0.04800
C1429       C  0.01345964  0.89072288  0.83619401    -0.14500
C1430       C  0.01430054  0.86273120  0.81914875    -0.07800
C1431       C  0.98859873  0.81574452  0.90595754     0.05700
C1432       C  0.00711237  0.79147243  0.91136082    -0.08900
C1433       C  0.99936007  0.76851551  0.93686233     0.00700
C1434       C  0.97271431  0.76981383  0.95772336     0.00600
C1435       C  0.95361398  0.79328182  0.95059553    -0.12500
C1436       C  0.96130464  0.81618270  0.92529800     0.01000
C1437       C  0.02019846  0.74530796  0.94363744     0.40300
C1438       C  0.94102789  0.84019964  0.92048743     0.36900
C1439       C  0.00599332  0.81008367  0.82134464     0.36700
C1440       C  0.00485691  0.92189256  0.89590590     0.37400
N1441       N  0.03717919  0.72691987  0.94906783    -0.43400
N1442       N  0.92492283  0.85958724  0.91697839    -0.43800
N1443       N  0.00385920  0.94455554  0.91109078    -0.41200
N1444       N  0.00547184  0.78772618  0.80529178    -0.42600
H1445       H  0.01953055  0.86029924  0.78785856     0.13600
H1446       H  0.99355641  0.87137691  0.93046986     0.10100
H1447       H  0.02822279  0.79103823  0.89692959     0.11100
H1448       H  0.93421525  0.78927537  0.47010186     0.16900
C1449       C  0.95870186  0.68725572  0.88424297    -0.01300
C1450       C  0.97542326  0.66153323  0.88911149     0.07300
C1451       C  0.98905680  0.65605575  0.92591888    -0.07200
C1452       C  0.98588174  0.67533328  0.95796282     0.04800
C1453       C  0.96872995  0.70093975  0.95358938    -0.14500
C1454       C  0.95548284  0.70674784  0.91640615    -0.07800
C1455       C  0.98002700  0.64003796  0.85644529     0.05700
C1456       C  0.00746964  0.63870765  0.83841807    -0.08900
C1457       C  0.01484100  0.61586030  0.81250300     0.00700
C1458       C  0.99451803  0.59323166  0.80451283     0.00600
C1459       C  0.96638487  0.59563169  0.82103942    -0.12500
C1460       C  0.95909016  0.61868179  0.84681060     0.01000
C1461       C  0.04359860  0.61635665  0.79514073     0.40300
C1462       C  0.93047879  0.61918561  0.86454630     0.36900
C1463       C  0.94481829  0.69407824  0.84657266     0.36700
C1464       C  0.00127562  0.66864528  0.99466725     0.37400
N1465       N  0.06668684  0.61698768  0.78137431    -0.43400
N1466       N  0.90750490  0.61959985  0.87866811    -0.43800
N1467       N  0.01368198  0.66317496  0.02397353    -0.41200
N1468       N  0.93367811  0.69960069  0.81636370    -0.42600
H1469       H  0.94211401  0.72616234  0.91271545     0.13600
H1470       H  0.00227745  0.63650892  0.92960675     0.10100
H1471       H  0.02356824  0.65521183  0.84564990     0.11100
H1472       H  0.95034463  0.57879149  0.81529919     0.16900
loop_ 
_geom_bond_atom_site_label_1 
_geom_bond_atom_site_label_2 
_geom_bond_distance 
_geom_bond_site_symmetry_2 
_ccdc_geom_bond_type 
N1            C2   1.361       .  A
N1          C741   1.361       .  A
N1          C698   1.443       .  S
C2          C717   1.489       .  S
C2          C739   1.385       .  A
C3            C4   1.375       .  A
C3          C738   1.385   1_554  A
C3            H6   1.082       .  S
C4            C5   1.380       .  A
C4            H7   1.082       .  S
C5          N737   1.361   1_554  A
C5          C674   1.491       .  S
N8            C9   1.355       .  A
N8          C748   1.355   1_554  A
N8          C621   1.432       .  S
C9          C645   1.488       .  S
C9          C746   1.384   1_554  A
C10          C11   1.377       .  A
C10         C745   1.384       .  A
C10          H13   1.082       .  S
C11          C12   1.382       .  A
C11          H14   1.082       .  S
C12         N744   1.355       .  A
C12         C597   1.484       .  S
N15          C16   1.355       .  A
N15         C755   1.360       .  A
N15         C573   1.438       .  S
C16         C525   1.482       .  S
C16         C753   1.380       .  A
C17          C18   1.380       .  A
C17         C752   1.384   1_554  A
C17          H20   1.082       .  S
C18          C19   1.381       .  A
C18          H21   1.082       .  S
C19         N751   1.357   1_554  A
C19         C549   1.491       .  S
N22          C23   1.362       .  A
N22         C762   1.364   1_554  A
N22         C501   1.438       .  S
C23         C458   1.501       .  S
C23         C760   1.384   1_554  A
C24          C25   1.375       .  A
C24         C759   1.386       .  A
C24          H27   1.082       .  S
C25          C26   1.381       .  A
C25          H28   1.082       .  S
C26         N758   1.361       .  A
C26         C482   1.494       .  S
N29          C30   1.355       .  A
N29         C769   1.354       .  A
N29         C434   1.441       .  S
C30         C386   1.478       .  S
C30         C767   1.382       .  A
C31          C32   1.379       .  A
C31         C766   1.383   1_554  A
C31          H34   1.082       .  S
C32          C33   1.380       .  A
C32          H35   1.082       .  S
C33         N765   1.352   1_554  A
C33         C405   1.476       .  S
N36          C37   1.358       .  A
N36         C776   1.354   1_554  A
N36         C357   1.438       .  S
C37         C314   1.491       .  S
C37         C774   1.387   1_554  A
C38          C39   1.379       .  A
C38         C773   1.386       .  A
C38          H41   1.082       .  S
C39          C40   1.383       .  A
C39          H42   1.082       .  S
C40         N772   1.359       .  A
C40         C333   1.497       .  S
N43          C44   1.357       .  A
N43         C783   1.358   1_554  A
N43         C266   1.438       .  S
C44         C285   1.490       .  S
C44         C781   1.385   1_554  A
C45          C46   1.375       .  A
C45         C780   1.386       .  A
C45          H48   1.082       .  S
C46          C47   1.381       .  A
C46          H49   1.082       .  S
C47         N779   1.359       .  A
C47         C242   1.488       .  S
N50          C51   1.356       .  A
N50         C790   1.356       .  A
N50         C189   1.436       .  S
C51         C213   1.487       .  S
C51         C788   1.384       .  A
C52          C53   1.378       .  A
C52         C787   1.385   1_554  A
C52          H55   1.082       .  S
C53          C54   1.382       .  A
C53          H56   1.082       .  S
C54         N786   1.356   1_554  A
C54         C165   1.488       .  S
O57         Ni63   1.927       .  S
O57          C78   1.270       .  A
O58         Ni81   1.904       .  S
O58          C67   1.267       .  A
O59         Ni63   1.916       .  S
O59         Ni81   1.914       .  S
O59         Ni75   1.916       .  S
O59          H82   0.966       .  S
C60         C429   1.489       .  S
C60          O77   1.272       .  A
C60          O69   1.276       .  A
O61         Ni80   1.934       .  S
O61          C67   1.274       .  A
O62         Ni80   1.905       .  S
O62          C64   1.269       .  A
Ni63         O66   1.921       .  S
Ni63         O68   1.899       .  S
C64         C410   1.491       .  S
C64          O74   1.275       .  A
O65         Ni81   1.920       .  S
O65          C71   1.273       .  A
O66          C71   1.274       .  A
C67         C290   1.486       .  S
O68          C70   1.269       .  A
O69         Ni80   1.936       .  S
C70         C338   1.488       .  S
C70          O76   1.276       .  A
C71         C362   1.487       .  S
H72          O73   0.966       .  S
O73         Ni81   1.913       .  S
O73         Ni75   1.910       .  S
O73         Ni80   1.920       .  S
O74         Ni75   1.936       .  S
Ni75         O79   1.913       .  S
Ni75         O77   1.907       .  S
O76         Ni81   1.941       .  S
C78         C218   1.492       .  S
C78          O79   1.268       .  A
O83         Ni89   1.931       .  S
O83         C104   1.271       .  A
O84        Ni107   1.905       .  S
O84          C93   1.267       .  A
O85         Ni89   1.925       .  S
O85        Ni107   1.915   1_565  S
O85        Ni101   1.914       .  S
O85         H108   0.970       .  S
C86         C578   1.472       .  S
C86         O103   1.265   1_545  A
C86          O95   1.274       .  A
O87        Ni106   1.933       .  S
O87          C93   1.272       .  A
O88        Ni106   1.903       .  S
O88          C90   1.268   1_545  A
Ni89         O92   1.937       .  S
Ni89         O94   1.907       .  S
C90         C554   1.491       .  S
C90         O100   1.279       .  A
O91        Ni107   1.895       .  S
O91          C97   1.266   1_545  A
O92          C97   1.272       .  A
C93         C309   1.482       .  S
O94          C96   1.271   1_565  A
O95        Ni106   1.938       .  S
C96         C477   1.487       .  S
C96         O102   1.280       .  A
C97         C506   1.490   1_565  S
H98          O99   0.966       .  S
O99        Ni107   1.903       .  S
O99        Ni101   1.906   1_545  S
O99        Ni106   1.922       .  S
O100       Ni101   1.960       .  S
Ni101       O105   1.900       .  S
Ni101       O103   1.892       .  S
O102       Ni107   1.956       .  S
C104        C381   1.485       .  S
C104        O105   1.266       .  A
O109       Ni115   1.931       .  S
O109        C130   1.273   1_545  A
O110       Ni133   1.912       .  S
O110        C119   1.267   1_545  A
O111       Ni115   1.924   1_565  S
O111       Ni133   1.920   1_665  S
O111       Ni127   1.923       .  S
O111        H134   0.966       .  S
C112        C693   1.481       .  S
C112        O129   1.271   1_455  A
C112        O121   1.274       .  A
O113       Ni132   1.939       .  S
O113        C119   1.273       .  A
O114       Ni132   1.901       .  S
O114        C116   1.269       .  A
Ni115       O118   1.935       .  S
Ni115       O120   1.904       .  S
C116        C669   1.481   1_455  S
C116        O126   1.276   1_455  A
O117       Ni133   1.897       .  S
O117        C123   1.265       .  A
O118        C123   1.272   1_655  A
C119        C453   1.491       .  S
O120        C122   1.271   1_655  A
O121       Ni132   1.934       .  S
C122        C602   1.492       .  S
C122        O128   1.280       .  A
C123        C626   1.486       .  S
H124        O125   0.966       .  S
O125       Ni133   1.903   1_565  S
O125       Ni127   1.914   1_455  S
O125       Ni132   1.923       .  S
O126       Ni127   1.948       .  S
Ni127       O131   1.914       .  S
Ni127       O129   1.908       .  S
O128       Ni133   1.951       .  S
C130        C530   1.499       .  S
C130        O131   1.269       .  A
O135       Ni141   1.929       .  S
O135        C156   1.271   1_455  A
O136       Ni159   1.914       .  S
O136        C145   1.269       .  A
O137       Ni141   1.923       .  S
O137       Ni159   1.916       .  S
O137       Ni153   1.915   1_455  S
O137        H160   0.967       .  S
C138        C194   1.497       .  S
C138        O155   1.267       .  A
C138        O147   1.276       .  A
O139       Ni158   1.935       .  S
O139        C145   1.275   1_655  A
O140       Ni158   1.905       .  S
O140        C142   1.271       .  A
Ni141       O144   1.930       .  S
Ni141       O146   1.897       .  S
C142        C170   1.499       .  S
C142        O152   1.277       .  A
O143       Ni159   1.906       .  S
O143        C149   1.268       .  A
O144        C149   1.271       .  A
C145        C650   1.505       .  S
O146        C148   1.269       .  A
O147       Ni158   1.945       .  S
C148        C237   1.492       .  S
C148        O154   1.280       .  A
C149        C261   1.476       .  S
H150        O151   0.966   1_455  S
O151       Ni159   1.918   1_655  S
O151       Ni153   1.912       .  S
O151       Ni158   1.925       .  S
O152       Ni153   1.945       .  S
Ni153       O157   1.904       .  S
Ni153       O155   1.901       .  S
O154       Ni159   1.953       .  S
C156        C722   1.489       .  S
C156        O157   1.266       .  A
C161        C162   1.412       .  A
C161        C166   1.407       .  A
C161        C175   1.443       .  S
C162        C167   1.489       .  S
C162        C163   1.402       .  A
C163        C164   1.397       .  A
C163        H182   1.085       .  S
C164        C165   1.412       .  A
C164        C176   1.444       .  S
C165        C166   1.406       .  A
C166        H181   1.084       .  S
C167        C168   1.402       .  A
C167        C172   1.409       .  A
C168        C169   1.405       .  A
C168        H183   1.085       .  S
C169        C170   1.421       .  A
C169        C173   1.444       .  S
C170        C171   1.411       .  A
C171        C172   1.400       .  A
C171        H184   1.084       .  S
C172        C174   1.445       .  S
C173        N177   1.157       .  T
C174        N178   1.157       .  T
C175        N180   1.157       .  T
C176        N179   1.157       .  T
C185        C186   1.413       .  A
C185        C190   1.400       .  A
C185        C199   1.444       .  S
C186        C191   1.491       .  S
C186        C187   1.407       .  A
C187        C188   1.404       .  A
C187        H206   1.084       .  S
C188        C189   1.405       .  A
C188        C200   1.442       .  S
C189        C190   1.399       .  A
C190        H205   1.084       .  S
C191        C192   1.402       .  A
C191        C196   1.409       .  A
C192        C193   1.402       .  A
C192        H207   1.085       .  S
C193        C194   1.420       .  A
C193        C197   1.444       .  S
C194        C195   1.410       .  A
C195        C196   1.405       .  A
C195        H208   1.084       .  S
C196        C198   1.444       .  S
C197        N201   1.157       .  T
C198        N202   1.157       .  T
C199        N204   1.157       .  T
C200        N203   1.157       .  T
C209        C210   1.411       .  A
C209        C214   1.406       .  A
C209        C223   1.442       .  S
C210        C215   1.487       .  S
C210        C211   1.401       .  A
C211        C212   1.400       .  A
C211        H230   1.085       .  S
C212        C213   1.414       .  A
C212        C960   1.445       .  S
C213        C214   1.404       .  A
C214        H229   1.084       .  S
C215        C216   1.399       .  A
C215        C220   1.411       .  A
C216        C217   1.402       .  A
C216        H231   1.085       .  S
C217        C218   1.419       .  A
C217        C221   1.445       .  S
C218        C219   1.407       .  A
C219        C220   1.405       .  A
C219        H232   1.085       .  S
C220        C222   1.444       .  S
C221        N225   1.157       .  T
C222        N226   1.157       .  T
C223        N228   1.157       .  T
C224        C948   1.444       .  S
C224        N227   1.157   1_556  T
C233        C234   1.408       .  A
C233        C238   1.403       .  A
C233        C247   1.443       .  S
C234        C239   1.484       .  S
C234        C235   1.400       .  A
C235        C236   1.401       .  A
C235        H254   1.085       .  S
C236        C237   1.420       .  A
C236        C248   1.445       .  S
C237        C238   1.409       .  A
C238        H253   1.084       .  S
C239        C240   1.400       .  A
C239        C244   1.409       .  A
C240        C241   1.399       .  A
C240        H255   1.085       .  S
C241        C242   1.414       .  A
C241        C245   1.444       .  S
C242        C243   1.406       .  A
C243        C244   1.405       .  A
C243        H256   1.084       .  S
C244        C246   1.442       .  S
C245        N249   1.157       .  T
C246        N250   1.157       .  T
C247        N252   1.157       .  T
C248        N251   1.158       .  T
C257        C258   1.411       .  A
C257        C262   1.399       .  A
C257        C271   1.443       .  S
C258        C263   1.482       .  S
C258        C259   1.402       .  A
C259        C260   1.401       .  A
C259        H278   1.085       .  S
C260        C261   1.415       .  A
C260        C272   1.445       .  S
C261        C262   1.402       .  A
C262        H277   1.085       .  S
C263        C264   1.403       .  A
C263        C268   1.411       .  A
C264        C265   1.399       .  A
C264        H279   1.085       .  S
C265        C266   1.409       .  A
C265       C1005   1.442       .  S
C266        C267   1.402       .  A
C267        C268   1.400       .  A
C267        H280   1.084       .  S
C268        C270   1.444       .  S
C269       C1001   1.442       .  S
C269        N273   1.157       .  T
C270        N274   1.157       .  T
C271        N276   1.157       .  T
C272        N275   1.157       .  T
C281        C282   1.413       .  A
C281        C286   1.403       .  A
C281        C295   1.444       .  S
C282        C287   1.489       .  S
C282        C283   1.402       .  A
C283        C284   1.397       .  A
C283        H302   1.085       .  S
C284        C285   1.414       .  A
C284       C1032   1.444       .  S
C285        C286   1.407       .  A
C286        H301   1.083       .  S
C287        C288   1.406       .  A
C287        C292   1.413       .  A
C288        C289   1.403       .  A
C288        H303   1.085       .  S
C289        C290   1.414       .  A
C289        C293   1.444       .  S
C290        C291   1.405       .  A
C291        C292   1.398       .  A
C291        H304   1.085       .  S
C292        C294   1.445       .  S
C293        N297   1.157       .  T
C294        N298   1.157       .  T
C295        N300   1.157       .  T
C296       C1020   1.444       .  S
C296        N299   1.157       .  T
C305        C306   1.413       .  A
C305        C310   1.399       .  A
C305        C319   1.445       .  S
C306        C311   1.490       .  S
C306        C307   1.405       .  A
C307        C308   1.405       .  A
C307        H326   1.084       .  S
C308        C309   1.413       .  A
C308        C320   1.444       .  S
C309        C310   1.403       .  A
C310        H325   1.085       .  S
C311        C312   1.402       .  A
C311        C316   1.411       .  A
C312        C313   1.402       .  A
C312        H327   1.085       .  S
C313        C314   1.417       .  A
C313       C1053   1.445       .  S
C314        C315   1.404       .  A
C315        C316   1.401       .  A
C315        H328   1.080       .  S
C316        C318   1.444       .  S
C317       C1049   1.444       .  S
C317        N321   1.157       .  T
C318        N322   1.157       .  T
C319        N324   1.157       .  T
C320        N323   1.157       .  T
C329        C330   1.410       .  A
C329        C334   1.400       .  A
C329        C343   1.444       .  S
C330        C335   1.491       .  S
C330        C331   1.403       .  A
C331        C332   1.407       .  A
C331        H350   1.085       .  S
C332        C333   1.416       .  A
C332        C344   1.443       .  S
C333        C334   1.404       .  A
C334        H349   1.079       .  S
C335        C336   1.400       .  A
C335        C340   1.412       .  A
C336        C337   1.396       .  A
C336        H351   1.085       .  S
C337        C338   1.417       .  A
C337        C341   1.445       .  S
C338        C339   1.408       .  A
C339        C340   1.409       .  A
C339        H352   1.084       .  S
C340        C342   1.442       .  S
C341        N345   1.157       .  T
C342        N346   1.157       .  T
C343        N348   1.157       .  T
C344        N347   1.157       .  T
C353        C354   1.415       .  A
C353        C358   1.400       .  A
C353        C367   1.444       .  S
C354        C359   1.490       .  S
C354        C355   1.406       .  A
C355        C356   1.401       .  A
C355        H374   1.084       .  S
C356        C357   1.405       .  A
C356        C368   1.442       .  S
C357        C358   1.401       .  A
C358        H373   1.084       .  S
C359        C360   1.406       .  A
C359        C364   1.410       .  A
C360        C361   1.404       .  A
C360        H375   1.085       .  S
C361        C362   1.413       .  A
C361        C365   1.443       .  S
C362        C363   1.407       .  A
C363        C364   1.399       .  A
C363        H376   1.084       .  S
C364        C366   1.445       .  S
C365        N369   1.157       .  T
C366        N370   1.157       .  T
C367        N372   1.157       .  T
C368        N371   1.157       .  T
C377        C378   1.414       .  A
C377        C382   1.400       .  A
C377        C391   1.445       .  S
C378        C383   1.493       .  S
C378        C379   1.405       .  A
C379        C380   1.404       .  A
C379        H398   1.085       .  S
C380        C381   1.414       .  A
C380        C392   1.444       .  S
C381        C382   1.405       .  A
C382        H397   1.085       .  S
C383        C384   1.406       .  A
C383        C388   1.414       .  A
C384        C385   1.402       .  A
C384        H399   1.085       .  S
C385        C386   1.410       .  A
C385       C1125   1.444       .  S
C386        C387   1.401       .  A
C387        C388   1.402       .  A
C387        H400   1.084       .  S
C388        C390   1.444       .  S
C389       C1121   1.444       .  S
C389        N393   1.157       .  T
C390        N394   1.157       .  T
C391        N396   1.157       .  T
C392        N395   1.157       .  T
C401        C402   1.413       .  A
C401        C406   1.402       .  A
C401        C415   1.444       .  S
C402        C407   1.487       .  S
C402        C403   1.404       .  A
C403        C404   1.398       .  A
C403        H422   1.085       .  S
C404        C405   1.409       .  A
C404        C416   1.444       .  S
C405        C406   1.401       .  A
C406       H1157   1.085       .  S
C407        C408   1.401       .  A
C407        C412   1.410       .  A
C408        C409   1.400       .  A
C408        H423   1.085       .  S
C409        C410   1.418       .  A
C409        C413   1.444       .  S
C410        C411   1.409       .  A
C411        C412   1.403       .  A
C411        H424   1.084       .  S
C412        C414   1.445       .  S
C413        N417   1.157       .  T
C414        N418   1.157       .  T
C415        N420   1.157       .  T
C416        N419   1.157       .  T
H421       C1142   1.085       .  S
C425        C426   1.409       .  A
C425        C430   1.401       .  A
C425        C439   1.444       .  S
C426        C431   1.483       .  S
C426        C427   1.400       .  A
C427        C428   1.402       .  A
C427        H446   1.085       .  S
C428        C429   1.419       .  A
C428        C440   1.444       .  S
C429        C430   1.407       .  A
C430        H445   1.085       .  S
C431        C432   1.402       .  A
C431        C436   1.409       .  A
C432        C433   1.402       .  A
C432        H447   1.085       .  S
C433        C434   1.410       .  A
C433        C437   1.442       .  S
C434        C435   1.403       .  A
C435        C436   1.400       .  A
C435        H448   1.084       .  S
C436        C438   1.443       .  S
C437        N441   1.157       .  T
C438        N442   1.157       .  T
C439        N444   1.157       .  T
C440        N443   1.157       .  T
C449        C450   1.415   1_565  A
C449        C454   1.403       .  A
C449        C463   1.444       .  S
C450        C455   1.502       .  S
C450        C451   1.409       .  A
C451        C452   1.409       .  A
C451        H470   1.084       .  S
C452        C453   1.414   1_545  A
C452        C464   1.444       .  S
C453        C454   1.405       .  A
C454        H469   1.085       .  S
C455        C456   1.404       .  A
C455        C460   1.416       .  A
C456        C457   1.404       .  A
C456        H471   1.085       .  S
C457        C458   1.418       .  A
C457       C1197   1.444       .  S
C458        C459   1.406       .  A
C459        C460   1.407       .  A
C459        H472   1.083       .  S
C460        C462   1.443   1_545  S
C461       C1193   1.445       .  S
C461        N465   1.157       .  T
C462        N466   1.157       .  T
C463        N468   1.157       .  T
C464        N467   1.157       .  T
C473        C474   1.412       .  A
C473        C478   1.403       .  A
C473        C487   1.444       .  S
C474        C479   1.493       .  S
C474        C475   1.405       .  A
C475        C476   1.407       .  A
C475        H494   1.085       .  S
C476        C477   1.414       .  A
C476        C488   1.444   1_545  S
C477        C478   1.404       .  A
C478        H493   1.085       .  S
C479        C480   1.402       .  A
C479        C484   1.412       .  A
C480        C481   1.401       .  A
C480        H495   1.085       .  S
C481        C482   1.415       .  A
C481        C485   1.444       .  S
C482        C483   1.406       .  A
C483        C484   1.408       .  A
C483        H496   1.084       .  S
C484        C486   1.442       .  S
C485        N489   1.157   1_545  T
C486        N490   1.157       .  T
C487        N492   1.157       .  T
C488        N491   1.157       .  T
C497        C498   1.411       .  A
C497        C502   1.399       .  A
C497        C511   1.444       .  S
C498        C503   1.482       .  S
C498        C499   1.403       .  A
C499        C500   1.399       .  A
C499        H518   1.085   1_545  S
C500        C501   1.408       .  A
C500       C1248   1.442   1_545  S
C501        C502   1.402       .  A
C502        H517   1.084       .  S
C503        C504   1.400   1_545  A
C503        C508   1.409       .  A
C504        C505   1.400       .  A
C504        H519   1.085       .  S
C505        C506   1.420   1_565  A
C505        C509   1.444       .  S
C506        C507   1.409       .  A
C507        C508   1.397       .  A
C507        H520   1.085       .  S
C508        C510   1.444       .  S
C509        N513   1.157       .  T
C510        N514   1.157       .  T
C511        N516   1.157       .  T
C512       C1236   1.442   1_565  S
C512        N515   1.157       .  T
C521        C522   1.417       .  A
C521        C526   1.403       .  A
C521        C535   1.444   1_565  S
C522        C527   1.497       .  S
C522        C523   1.407       .  A
C523        C524   1.404       .  A
C523        H542   1.084       .  S
C524        C525   1.409       .  A
C524        C536   1.443       .  S
C525        C526   1.401       .  A
C526       H1277   1.085       .  S
C527        C528   1.404       .  A
C527        C532   1.411       .  A
C528        C529   1.404       .  A
C528        H543   1.085       .  S
C529        C530   1.418       .  A
C529        C533   1.442       .  S
C530        C531   1.410       .  A
C531        C532   1.404       .  A
C531        H544   1.084   1_565  S
C532        C534   1.444   1_565  S
C533        N537   1.156       .  T
C534        N538   1.157       .  T
C535        N540   1.157       .  T
C536        N539   1.157       .  T
H541       C1262   1.085       .  S
C545        C546   1.416       .  A
C545        C550   1.406       .  A
C545        C559   1.444   1_565  S
C546        C551   1.500       .  S
C546        C547   1.406       .  A
C547        C548   1.406       .  A
C547        H566   1.084       .  S
C548        C549   1.411       .  A
C548        C560   1.443       .  S
C549        C550   1.403       .  A
C550        H565   1.084       .  S
C551        C552   1.405       .  A
C551        C556   1.415       .  A
C552        C553   1.404       .  A
C552        H567   1.085       .  S
C553        C554   1.414       .  A
C553        C557   1.444   1_565  S
C554        C555   1.406       .  A
C555        C556   1.407       .  A
C555        H568   1.085       .  S
C556        C558   1.444       .  S
C557        N561   1.157       .  T
C558        N562   1.157       .  T
C559        N564   1.157       .  T
C560        N563   1.157       .  T
C569        C570   1.410       .  A
C569        C574   1.397       .  A
C569        C583   1.445       .  S
C570        C575   1.479       .  S
C570        C571   1.403   1_565  A
C571        C572   1.399   1_545  A
C571        H590   1.085       .  S
C572        C573   1.408       .  A
C572        C584   1.441   1_565  S
C573        C574   1.403       .  A
C574       H1325   1.083       .  S
C575        C576   1.402       .  A
C575        C580   1.410       .  A
C576        C577   1.397   1_565  A
C576        H591   1.085       .  S
C577        C578   1.411       .  A
C577        C581   1.444       .  S
C578        C579   1.404       .  A
C579        C580   1.398   1_545  A
C579        H592   1.085       .  S
C580        C582   1.444       .  S
C581        N585   1.157       .  T
C582        N586   1.157       .  T
C583        N588   1.157       .  T
C584        N587   1.157       .  T
H589       C1310   1.084       .  S
C593        C594   1.411       .  A
C593        C598   1.407       .  A
C593        C607   1.443       .  S
C594        C599   1.486       .  S
C594        C595   1.401       .  A
C595        C596   1.398       .  A
C595        H614   1.085       .  S
C596        C597   1.411       .  A
C596        C608   1.444       .  S
C597        C598   1.405       .  A
C598        H613   1.084       .  S
C599        C600   1.401       .  A
C599        C604   1.410       .  A
C600        C601   1.403       .  A
C600        H615   1.085       .  S
C601        C602   1.418       .  A
C601        C605   1.444   1_455  S
C602        C603   1.408       .  A
C603        C604   1.403       .  A
C603        H616   1.085       .  S
C604        C606   1.444       .  S
C605        N609   1.157       .  T
C606        N610   1.157       .  T
C607        N612   1.157       .  T
C608        N611   1.157   1_455  T
C617        C618   1.410       .  A
C617        C622   1.398       .  A
C617        C631   1.444       .  S
C618        C623   1.479       .  S
C618        C619   1.403       .  A
C619        C620   1.400       .  A
C619        H638   1.085   1_455  S
C620        C621   1.406       .  A
C620       C1368   1.442   1_455  S
C621        C622   1.399       .  A
C622        H637   1.084       .  S
C623        C624   1.399       .  A
C623        C628   1.408       .  A
C624        C625   1.400       .  A
C624        H639   1.085       .  S
C625        C626   1.418       .  A
C625        C629   1.444   1_455  S
C626        C627   1.408       .  A
C627        C628   1.400       .  A
C627        H640   1.085       .  S
C628        C630   1.444       .  S
C629        N633   1.157       .  T
C630        N634   1.157       .  T
C631        N636   1.157       .  T
C632       C1356   1.442   1_655  S
C632        N635   1.157       .  T
C641        C642   1.415       .  A
C641        C646   1.410       .  A
C641        C655   1.443       .  S
C642        C647   1.500       .  S
C642        C643   1.405       .  A
C643        C644   1.401       .  A
C643        H662   1.085   1_455  S
C644        C645   1.412       .  A
C644       C1392   1.444       .  S
C645        C646   1.404       .  A
C646        H661   1.084       .  S
C647        C648   1.406       .  A
C647        C652   1.411       .  A
C648        C649   1.408       .  A
C648        H663   1.085       .  S
C649        C650   1.421       .  A
C649        C653   1.444       .  S
C650        C651   1.411   1_455  A
C651        C652   1.402   1_655  A
C651        H664   1.084       .  S
C652        C654   1.444   1_455  S
C653        N657   1.158       .  T
C654        N658   1.157       .  T
C655        N660   1.157       .  T
C656       C1380   1.445       .  S
C656        N659   1.157   1_455  T
C665        C666   1.415       .  A
C665        C670   1.411       .  A
C665        C679   1.443       .  S
C666        C671   1.493       .  S
C666        C667   1.403       .  A
C667        C668   1.394   1_655  A
C667        H686   1.085   1_655  S
C668        C669   1.411   1_455  A
C668        C680   1.445       .  S
C669        C670   1.407       .  A
C670        H685   1.084       .  S
C671        C672   1.404       .  A
C671        C676   1.413       .  A
C672        C673   1.398       .  A
C672        H687   1.085   1_655  S
C673        C674   1.412       .  A
C673       C1413   1.442   1_655  S
C674        C675   1.407       .  A
C675        C676   1.406       .  A
C675        H688   1.085       .  S
C676        C678   1.443       .  S
C677       C1409   1.441   1_455  S
C677        N681   1.157       .  T
C678        N682   1.157       .  T
C679        N684   1.157       .  T
C680        N683   1.157       .  T
C689        C690   1.411   1_455  A
C689        C694   1.399       .  A
C689        C703   1.444       .  S
C690        C695   1.491       .  S
C690        C691   1.407       .  A
C691        C692   1.402   1_655  A
C691        H710   1.085       .  S
C692        C693   1.411       .  A
C692        C704   1.444       .  S
C693        C694   1.404       .  A
C694        H709   1.083       .  S
C695        C696   1.406   1_655  A
C695        C700   1.412       .  A
C696        C697   1.402       .  A
C696        H711   1.084       .  S
C697        C698   1.411   1_455  A
C697        C701   1.442       .  S
C698        C699   1.403       .  A
C699        C700   1.398       .  A
C699       H1448   1.084       .  S
C700        C702   1.444       .  S
C701        N705   1.157       .  T
C702        N706   1.157       .  T
C703        N708   1.157       .  T
C704        N707   1.157       .  T
H712       C1435   1.084       .  S
C713        C714   1.409       .  A
C713        C718   1.406       .  A
C713        C727   1.442       .  S
C714        C719   1.485       .  S
C714        C715   1.400       .  A
C715        C716   1.399       .  A
C715        H734   1.085   1_655  S
C716        C717   1.416       .  A
C716        C728   1.445   1_655  S
C717        C718   1.405       .  A
C718        H733   1.084       .  S
C719        C720   1.401   1_655  A
C719        C724   1.409       .  A
C720        C721   1.403       .  A
C720        H735   1.085       .  S
C721        C722   1.417   1_455  A
C721        C725   1.444       .  S
C722        C723   1.406       .  A
C723        C724   1.401       .  A
C723        H736   1.083       .  S
C724        C726   1.444       .  S
C725        N729   1.157       .  T
C726        N730   1.157       .  T
C727        N732   1.157       .  T
C728        N731   1.157       .  T
N737        C738   1.361       .  A
N737       C1434   1.443       .  S
C738       C1453   1.491       .  S
C739        C740   1.375       .  A
C739        H742   1.082       .  S
C740        C741   1.381       .  A
C740        H743   1.082       .  S
C741       C1410   1.491       .  S
N744        C745   1.356       .  A
N744       C1357   1.436       .  S
C745       C1381   1.486       .  S
C746        C747   1.379       .  A
C746        H749   1.082       .  S
C747        C748   1.382       .  A
C747        H750   1.082       .  S
C748       C1333   1.488       .  S
N751        C752   1.359       .  A
N751       C1309   1.435       .  S
C752       C1261   1.493       .  S
C753        C754   1.378       .  A
C753        H756   1.082       .  S
C754        C755   1.384       .  A
C754        H757   1.082       .  S
C755       C1285   1.491       .  S
N758        C759   1.362       .  A
N758       C1237   1.440       .  S
C759       C1194   1.499       .  S
C760        C761   1.377       .  A
C760        H763   1.082       .  S
C761        C762   1.384       .  A
C761        H764   1.082       .  S
C762       C1218   1.506       .  S
N765        C766   1.354       .  A
N765       C1170   1.439       .  S
C766       C1122   1.480       .  S
C767        C768   1.377       .  A
C767        H770   1.082       .  S
C768        C769   1.382       .  A
C768        H771   1.082       .  S
C769       C1141   1.478       .  S
N772        C773   1.360       .  A
N772       C1093   1.435       .  S
C773       C1050   1.499       .  S
C774        C775   1.376       .  A
C774        H777   1.082       .  S
C775        C776   1.379       .  A
C775        H778   1.082       .  S
C776       C1069   1.481       .  S
N779        C780   1.360       .  A
N779       C1002   1.441       .  S
C780       C1021   1.495       .  S
C781        C782   1.374       .  A
C781        H784   1.082       .  S
C782        C783   1.382       .  A
C782        H785   1.082       .  S
C783        C978   1.488       .  S
N786        C787   1.357       .  A
N786        C925   1.435       .  S
C787        C949   1.491       .  S
C788        C789   1.376       .  A
C788        H791   1.082       .  S
C789        C790   1.383       .  A
C789        H792   1.082       .  S
C790        C901   1.488       .  S
O793       Ni799   1.936       .  S
O793        C814   1.271       .  A
O794       Ni817   1.910       .  S
O794        C803   1.267       .  A
O795       Ni799   1.918       .  S
O795       Ni817   1.918       .  S
O795       Ni811   1.909       .  S
O795        H818   0.966       .  S
C796       C1165   1.472       .  S
C796        O813   1.268       .  A
C796        O805   1.273       .  A
O797       Ni816   1.930       .  S
O797        C803   1.271       .  A
O798       Ni816   1.899       .  S
O798        C800   1.269       .  A
Ni799       O802   1.925       .  S
Ni799       O804   1.899       .  S
C800       C1146   1.490       .  S
C800        O810   1.277       .  A
O801       Ni817   1.905       .  S
O801        C807   1.270       .  A
O802        C807   1.275       .  A
C803       C1026   1.488       .  S
O804        C806   1.269       .  A
O805       Ni816   1.926       .  S
C806       C1074   1.479       .  S
C806        O812   1.274       .  A
C807       C1098   1.484       .  S
H808        O809   0.966       .  S
O809       Ni817   1.909       .  S
O809       Ni811   1.918       .  S
O809       Ni816   1.922       .  S
O810       Ni811   1.944       .  S
Ni811       O815   1.924       .  S
Ni811       O813   1.898       .  S
O812       Ni817   1.933       .  S
C814        C954   1.509       .  S
C814        O815   1.271       .  A
O819       Ni825   1.938       .  S
O819        C840   1.272       .  A
O820       Ni843   1.920       .  S
O820        C829   1.271       .  A
O821       Ni825   1.921       .  S
O821       Ni843   1.919   1_565  S
O821       Ni837   1.911       .  S
O821        H844   0.970       .  S
C822       C1314   1.480       .  S
C822        O839   1.269   1_545  A
C822        O831   1.276       .  A
O823       Ni842   1.933       .  S
O823        C829   1.273       .  A
O824       Ni842   1.904       .  S
O824        C826   1.268       .  A
Ni825       O828   1.928       .  S
Ni825       O830   1.908       .  S
C826       C1290   1.490   1_545  S
C826        O836   1.276   1_545  A
O827       Ni843   1.910       .  S
O827        C833   1.272       .  A
O828        C833   1.274   1_565  A
C829       C1045   1.495       .  S
O830        C832   1.271   1_565  A
O831       Ni842   1.933       .  S
C832       C1213   1.500       .  S
C832        O838   1.281       .  A
C833       C1242   1.491       .  S
H834        O835   0.966       .  S
O835       Ni843   1.912       .  S
O835       Ni837   1.910   1_545  S
O835       Ni842   1.922       .  S
O836       Ni837   1.942       .  S
Ni837       O841   1.898       .  S
Ni837       O839   1.899       .  S
O838       Ni843   1.958       .  S
C840       C1117   1.481       .  S
C840        O841   1.264       .  A
O845       Ni851   1.933       .  S
O845        C866   1.273   1_545  A
O846       Ni869   1.916       .  S
O846        C855   1.269   1_545  A
O847       Ni851   1.927   1_565  S
O847       Ni869   1.922   1_665  S
O847       Ni863   1.921       .  S
O847        H870   0.966       .  S
C848       C1429   1.479       .  S
C848        O865   1.268       .  A
C848        O857   1.274       .  A
O849       Ni868   1.940       .  S
O849        C855   1.274       .  A
O850       Ni868   1.900       .  S
O850        C852   1.270       .  A
Ni851       O854   1.942       .  S
Ni851       O856   1.903       .  S
C852       C1405   1.482   1_455  S
C852        O862   1.279   1_455  A
O853       Ni869   1.906       .  S
O853        C859   1.268       .  A
O854        C859   1.274   1_655  A
C855       C1189   1.496   1_565  S
O856        C858   1.269   1_655  A
O857       Ni868   1.937       .  S
C858       C1338   1.487       .  S
C858        O864   1.278       .  A
C859       C1362   1.490       .  S
H860        O861   0.966       .  S
O861       Ni869   1.910   1_565  S
O861       Ni863   1.916   1_455  S
O861       Ni868   1.924       .  S
O862       Ni863   1.952       .  S
Ni863       O867   1.923       .  S
Ni863       O865   1.901   1_655  S
O864       Ni869   1.947       .  S
C866       C1266   1.510       .  S
C866        O867   1.271       .  A
O871       Ni877   1.933       .  S
O871        C892   1.272       .  A
O872       Ni895   1.912       .  S
O872        C881   1.268       .  A
O873       Ni877   1.921       .  S
O873       Ni895   1.918       .  S
O873       Ni889   1.914   1_455  S
O873        H896   0.967       .  S
C874        C930   1.491       .  S
C874        O891   1.270       .  A
C874        O883   1.277       .  A
O875       Ni894   1.942       .  S
O875        C881   1.275   1_655  A
O876       Ni894   1.909       .  S
O876        C878   1.271       .  A
Ni877       O880   1.930       .  S
Ni877       O882   1.898       .  S
C878        C906   1.499       .  S
C878        O888   1.276       .  A
O879       Ni895   1.904       .  S
O879        C885   1.269       .  A
O880        C885   1.274       .  A
C881       C1386   1.504       .  S
O882        C884   1.268       .  A
O883       Ni894   1.936       .  S
C884        C973   1.488       .  S
C884        O890   1.278       .  A
C885        C997   1.480       .  S
H886        O887   0.966   1_455  S
O887       Ni895   1.908   1_655  S
O887       Ni889   1.913       .  S
O887       Ni894   1.920       .  S
O888       Ni889   1.942       .  S
Ni889       O893   1.909       .  S
Ni889       O891   1.905       .  S
O890       Ni895   1.947       .  S
C892       C1458   1.498   1_455  S
C892        O893   1.268   1_455  A
C897        C898   1.413       .  A
C897        C902   1.409       .  A
C897        C911   1.443       .  S
C898        C903   1.491       .  S
C898        C899   1.402       .  A
C899        C900   1.399       .  A
C899        H918   1.085       .  S
C900        C901   1.412       .  A
C900        C912   1.444       .  S
C901        C902   1.405       .  A
C902        H917   1.084       .  S
C903        C904   1.403       .  A
C903        C908   1.409       .  A
C904        C905   1.407       .  A
C904        H919   1.085       .  S
C905        C906   1.419       .  A
C905        C909   1.444       .  S
C906        C907   1.410       .  A
C907        C908   1.402       .  A
C907        H920   1.084       .  S
C908        C910   1.444       .  S
C909        N913   1.157       .  T
C910        N914   1.157       .  T
C911        N916   1.157       .  T
C912        N915   1.157       .  T
C921        C922   1.411       .  A
C921        C926   1.397       .  A
C921        C935   1.443       .  S
C922        C927   1.485       .  S
C922        C923   1.405       .  A
C923        C924   1.403       .  A
C923        H942   1.084       .  S
C924        C925   1.408       .  A
C924        C936   1.442       .  S
C925        C926   1.399       .  A
C926        H941   1.084       .  S
C927        C928   1.402       .  A
C927        C932   1.408       .  A
C928        C929   1.401       .  A
C928        H943   1.085       .  S
C929        C930   1.419       .  A
C929        C933   1.445       .  S
C930        C931   1.409       .  A
C931        C932   1.402       .  A
C931        H944   1.084       .  S
C932        C934   1.444       .  S
C933        N937   1.158       .  T
C934        N938   1.157       .  T
C935        N940   1.157       .  T
C936        N939   1.157   1_556  T
C945        C946   1.414       .  A
C945        C950   1.410       .  A
C945        C959   1.442       .  S
C946        C951   1.496       .  S
C946        C947   1.402       .  A
C947        C948   1.400       .  A
C947        H966   1.085       .  S
C948        C949   1.413       .  A
C949        C950   1.406       .  A
C950        H965   1.083       .  S
C951        C952   1.400       .  A
C951        C956   1.412       .  A
C952        C953   1.404       .  A
C952        H967   1.085       .  S
C953        C954   1.424       .  A
C953        C957   1.444       .  S
C954        C955   1.412       .  A
C955        C956   1.410       .  A
C955        H968   1.084       .  S
C956        C958   1.443       .  S
C957        N961   1.157       .  T
C958        N962   1.157       .  T
C959        N964   1.157       .  T
C960        N963   1.157       .  T
C969        C970   1.408       .  A
C969        C974   1.402       .  A
C969        C983   1.444       .  S
C970        C975   1.481       .  S
C970        C971   1.399       .  A
C971        C972   1.401       .  A
C971        H990   1.085       .  S
C972        C973   1.419       .  A
C972        C984   1.445       .  S
C973        C974   1.407       .  A
C974        H989   1.085       .  S
C975        C976   1.399       .  A
C975        C980   1.408       .  A
C976        C977   1.396       .  A
C976        H991   1.085       .  S
C977        C978   1.415       .  A
C977        C981   1.444       .  S
C978        C979   1.407       .  A
C979        C980   1.405       .  A
C979        H992   1.084       .  S
C980        C982   1.443       .  S
C981        N985   1.157       .  T
C982        N986   1.157       .  T
C983        N988   1.157       .  T
C984        N987   1.157       .  T
C993        C994   1.409       .  A
C993        C998   1.400       .  A
C993       C1007   1.443       .  S
C994        C999   1.481       .  S
C994        C995   1.400       .  A
C995        C996   1.400       .  A
C995       H1014   1.085       .  S
C996        C997   1.415       .  A
C996       C1008   1.445       .  S
C997        C998   1.404       .  A
C998       H1013   1.085       .  S
C999       C1000   1.400       .  A
C999       C1004   1.410       .  A
C1000      C1001   1.398       .  A
C1000      H1015   1.085       .  S
C1001      C1002   1.411       .  A
C1002      C1003   1.403       .  A
C1003      C1004   1.402       .  A
C1003      H1016   1.084       .  S
C1004      C1006   1.443       .  S
C1005      N1009   1.157   1_554  T
C1006      N1010   1.157       .  T
C1007      N1012   1.157       .  T
C1008      N1011   1.157       .  T
C1017      C1018   1.413       .  A
C1017      C1022   1.405       .  A
C1017      C1031   1.444       .  S
C1018      C1023   1.493       .  S
C1018      C1019   1.401       .  A
C1019      C1020   1.400       .  A
C1019      H1038   1.085       .  S
C1020      C1021   1.417       .  A
C1021      C1022   1.407       .  A
C1022      H1037   1.083       .  S
C1023      C1024   1.407       .  A
C1023      C1028   1.413       .  A
C1024      C1025   1.406       .  A
C1024      H1039   1.085       .  S
C1025      C1026   1.413       .  A
C1025      C1029   1.444       .  S
C1026      C1027   1.406       .  A
C1027      C1028   1.400       .  A
C1027      H1040   1.085       .  S
C1028      C1030   1.445       .  S
C1029      N1033   1.157       .  T
C1030      N1034   1.157       .  T
C1031      N1036   1.157       .  T
C1032      N1035   1.157       .  T
C1041      C1042   1.414       .  A
C1041      C1046   1.401       .  A
C1041      C1055   1.445       .  S
C1042      C1047   1.500       .  S
C1042      C1043   1.408       .  A
C1043      C1044   1.409       .  A
C1043      H1062   1.084       .  S
C1044      C1045   1.414       .  A
C1044      C1056   1.443       .  S
C1045      C1046   1.407       .  A
C1046      H1061   1.084       .  S
C1047      C1048   1.404       .  A
C1047      C1052   1.414       .  A
C1048      C1049   1.404       .  A
C1048      H1063   1.085       .  S
C1049      C1050   1.417       .  A
C1050      C1051   1.406       .  A
C1051      C1052   1.405       .  A
C1051      H1064   1.079       .  S
C1052      C1054   1.444       .  S
C1053      N1057   1.157       .  T
C1054      N1058   1.157       .  T
C1055      N1060   1.157       .  T
C1056      N1059   1.157       .  T
C1065      C1066   1.414       .  A
C1065      C1070   1.397       .  A
C1065      C1079   1.445       .  S
C1066      C1071   1.489       .  S
C1066      C1067   1.405       .  A
C1067      C1068   1.403       .  A
C1067      H1086   1.084       .  S
C1068      C1069   1.411       .  A
C1068      C1080   1.444       .  S
C1069      C1070   1.400       .  A
C1070      H1085   1.082       .  S
C1071      C1072   1.402       .  A
C1071      C1076   1.413       .  A
C1072      C1073   1.393       .  A
C1072      H1087   1.085       .  S
C1073      C1074   1.414       .  A
C1073      C1077   1.445       .  S
C1074      C1075   1.406       .  A
C1075      C1076   1.407       .  A
C1075      H1088   1.085       .  S
C1076      C1078   1.443       .  S
C1077      N1081   1.157       .  T
C1078      N1082   1.157       .  T
C1079      N1084   1.157       .  T
C1080      N1083   1.157       .  T
C1089      C1090   1.414       .  A
C1089      C1094   1.397       .  A
C1089      C1103   1.444       .  S
C1090      C1095   1.486       .  S
C1090      C1091   1.406       .  A
C1091      C1092   1.399       .  A
C1091      H1110   1.085       .  S
C1092      C1093   1.405       .  A
C1092      C1104   1.442       .  S
C1093      C1094   1.399       .  A
C1094      H1109   1.084       .  S
C1095      C1096   1.404       .  A
C1095      C1100   1.410       .  A
C1096      C1097   1.400       .  A
C1096      H1111   1.085       .  S
C1097      C1098   1.415       .  A
C1097      C1101   1.444       .  S
C1098      C1099   1.407       .  A
C1099      C1100   1.398       .  A
C1099      H1112   1.083       .  S
C1100      C1102   1.445       .  S
C1101      N1105   1.157       .  T
C1102      N1106   1.157       .  T
C1103      N1108   1.157       .  T
C1104      N1107   1.157       .  T
C1113      C1114   1.414       .  A
C1113      C1118   1.399       .  A
C1113      C1127   1.445       .  S
C1114      C1119   1.491       .  S
C1114      C1115   1.406       .  A
C1115      C1116   1.405       .  A
C1115      H1134   1.085       .  S
C1116      C1117   1.412       .  A
C1116      C1128   1.443       .  S
C1117      C1118   1.402       .  A
C1118      H1133   1.084       .  S
C1119      C1120   1.404       .  A
C1119      C1124   1.413       .  A
C1120      C1121   1.402       .  A
C1120      H1135   1.085       .  S
C1121      C1122   1.411       .  A
C1122      C1123   1.402       .  A
C1123      C1124   1.401       .  A
C1123      H1136   1.084       .  S
C1124      C1126   1.444       .  S
C1125      N1129   1.157       .  T
C1126      N1130   1.157       .  T
C1127      N1132   1.157       .  T
C1128      N1131   1.157       .  T
C1137      C1138   1.410       .  A
C1137      C1142   1.403       .  A
C1137      C1151   1.443       .  S
C1138      C1143   1.481       .  S
C1138      C1139   1.401       .  A
C1139      C1140   1.397       .  A
C1139      H1158   1.085       .  S
C1140      C1141   1.410       .  A
C1140      C1152   1.444       .  S
C1141      C1142   1.403       .  A
C1143      C1144   1.400       .  A
C1143      C1148   1.407       .  A
C1144      C1145   1.401       .  A
C1144      H1159   1.085       .  S
C1145      C1146   1.418       .  A
C1145      C1149   1.444       .  S
C1146      C1147   1.410       .  A
C1147      C1148   1.400       .  A
C1147      H1160   1.084       .  S
C1148      C1150   1.445       .  S
C1149      N1153   1.157       .  T
C1150      N1154   1.157       .  T
C1151      N1156   1.157       .  T
C1152      N1155   1.157       .  T
C1161      C1162   1.410       .  A
C1161      C1166   1.398       .  A
C1161      C1175   1.444       .  S
C1162      C1167   1.474       .  S
C1162      C1163   1.399       .  A
C1163      C1164   1.396       .  A
C1163      H1182   1.085       .  S
C1164      C1165   1.415       .  A
C1164      C1176   1.446       .  S
C1165      C1166   1.403       .  A
C1166      H1181   1.085       .  S
C1167      C1168   1.400       .  A
C1167      C1172   1.407       .  A
C1168      C1169   1.398       .  A
C1168      H1183   1.085       .  S
C1169      C1170   1.410       .  A
C1169      C1173   1.442       .  S
C1170      C1171   1.404       .  A
C1171      C1172   1.397       .  A
C1171      H1184   1.082       .  S
C1172      C1174   1.444       .  S
C1173      N1177   1.157       .  T
C1174      N1178   1.157       .  T
C1175      N1180   1.157       .  T
C1176      N1179   1.157       .  T
C1185      C1186   1.415   1_565  A
C1185      C1190   1.402       .  A
C1185      C1199   1.444       .  S
C1186      C1191   1.502       .  S
C1186      C1187   1.408       .  A
C1187      C1188   1.409       .  A
C1187      H1206   1.085       .  S
C1188      C1189   1.416       .  A
C1188      C1200   1.444       .  S
C1189      C1190   1.406   1_545  A
C1190      H1205   1.085       .  S
C1191      C1192   1.404       .  A
C1191      C1196   1.416       .  A
C1192      C1193   1.404       .  A
C1192      H1207   1.085       .  S
C1193      C1194   1.417       .  A
C1194      C1195   1.406       .  A
C1195      C1196   1.407       .  A
C1195      H1208   1.083       .  S
C1196      C1198   1.443   1_545  S
C1197      N1201   1.157       .  T
C1198      N1202   1.157       .  T
C1199      N1204   1.157       .  T
C1200      N1203   1.157       .  T
C1209      C1210   1.412       .  A
C1209      C1214   1.407       .  A
C1209      C1223   1.443       .  S
C1210      C1215   1.496       .  S
C1210      C1211   1.402       .  A
C1211      C1212   1.406       .  A
C1211      H1230   1.085       .  S
C1212      C1213   1.420       .  A
C1212      C1224   1.444   1_545  S
C1213      C1214   1.408       .  A
C1214      H1229   1.084       .  S
C1215      C1216   1.401       .  A
C1215      C1220   1.411       .  A
C1216      C1217   1.404       .  A
C1216      H1231   1.085       .  S
C1217      C1218   1.419       .  A
C1217      C1221   1.444       .  S
C1218      C1219   1.410       .  A
C1219      C1220   1.410       .  A
C1219      H1232   1.083       .  S
C1220      C1222   1.442       .  S
C1221      N1225   1.157       .  T
C1222      N1226   1.157       .  T
C1223      N1228   1.157       .  T
C1224      N1227   1.157       .  T
C1233      C1234   1.411       .  A
C1233      C1238   1.403       .  A
C1233      C1247   1.444       .  S
C1234      C1239   1.482       .  S
C1234      C1235   1.401       .  A
C1235      C1236   1.400       .  A
C1235      H1254   1.085   1_545  S
C1236      C1237   1.409       .  A
C1237      C1238   1.402       .  A
C1238      H1253   1.084       .  S
C1239      C1240   1.399       .  A
C1239      C1244   1.408       .  A
C1240      C1241   1.401   1_545  A
C1240      H1255   1.085   1_545  S
C1241      C1242   1.421   1_565  A
C1241      C1245   1.445       .  S
C1242      C1243   1.408       .  A
C1243      C1244   1.402       .  A
C1243      H1256   1.084       .  S
C1244      C1246   1.443       .  S
C1245      N1249   1.157       .  T
C1246      N1250   1.157       .  T
C1247      N1252   1.157       .  T
C1248      N1251   1.157   1_554  T
C1257      C1258   1.412       .  A
C1257      C1262   1.403       .  A
C1257      C1271   1.444       .  S
C1258      C1263   1.499       .  S
C1258      C1259   1.406       .  A
C1259      C1260   1.411       .  A
C1259      H1278   1.084       .  S
C1260      C1261   1.414       .  A
C1260      C1272   1.442       .  S
C1261      C1262   1.404       .  A
C1263      C1264   1.405       .  A
C1263      C1268   1.408       .  A
C1264      C1265   1.411       .  A
C1264      H1279   1.085       .  S
C1265      C1266   1.422       .  A
C1265      C1269   1.443       .  S
C1266      C1267   1.413       .  A
C1267      C1268   1.405       .  A
C1267      H1280   1.084   1_565  S
C1268      C1270   1.444   1_565  S
C1269      N1273   1.157       .  T
C1270      N1274   1.157       .  T
C1271      N1276   1.157   1_565  T
C1272      N1275   1.157       .  T
C1281      C1282   1.409       .  A
C1281      C1286   1.400       .  A
C1281      C1295   1.444       .  S
C1282      C1287   1.487       .  S
C1282      C1283   1.403       .  A
C1283      C1284   1.406       .  A
C1283      H1302   1.085       .  S
C1284      C1285   1.414       .  A
C1284      C1296   1.442       .  S
C1285      C1286   1.406       .  A
C1286      H1301   1.085       .  S
C1287      C1288   1.400   1_565  A
C1287      C1292   1.410       .  A
C1288      C1289   1.403       .  A
C1288      H1303   1.085       .  S
C1289      C1290   1.417   1_545  A
C1289      C1293   1.444       .  S
C1290      C1291   1.407       .  A
C1291      C1292   1.405       .  A
C1291      H1304   1.085       .  S
C1292      C1294   1.443       .  S
C1293      N1297   1.157       .  T
C1294      N1298   1.157       .  T
C1295      N1300   1.157   1_565  T
C1296      N1299   1.157       .  T
C1305      C1306   1.414       .  A
C1305      C1310   1.398       .  A
C1305      C1319   1.444       .  S
C1306      C1311   1.489       .  S
C1306      C1307   1.407       .  A
C1307      C1308   1.402       .  A
C1307      H1326   1.084   1_565  S
C1308      C1309   1.405       .  A
C1308      C1320   1.441   1_565  S
C1309      C1310   1.400       .  A
C1311      C1312   1.405       .  A
C1311      C1316   1.412   1_565  A
C1312      C1313   1.399       .  A
C1312      H1327   1.085       .  S
C1313      C1314   1.413   1_565  A
C1313      C1317   1.445       .  S
C1314      C1315   1.405       .  A
C1315      C1316   1.401       .  A
C1315      H1328   1.085       .  S
C1316      C1318   1.444       .  S
C1317      N1321   1.157       .  T
C1318      N1322   1.157       .  T
C1319      N1324   1.157       .  T
C1320      N1323   1.157       .  T
C1329      C1330   1.410       .  A
C1329      C1334   1.407       .  A
C1329      C1343   1.443       .  S
C1330      C1335   1.485       .  S
C1330      C1331   1.400       .  A
C1331      C1332   1.399       .  A
C1331      H1350   1.085       .  S
C1332      C1333   1.413       .  A
C1332      C1344   1.444       .  S
C1333      C1334   1.406       .  A
C1334      H1349   1.084       .  S
C1335      C1336   1.402       .  A
C1335      C1340   1.409       .  A
C1336      C1337   1.404       .  A
C1336      H1351   1.085       .  S
C1337      C1338   1.417       .  A
C1337      C1341   1.445   1_455  S
C1338      C1339   1.406       .  A
C1339      C1340   1.400       .  A
C1339      H1352   1.085       .  S
C1340      C1342   1.443       .  S
C1341      N1345   1.158       .  T
C1342      N1346   1.157       .  T
C1343      N1348   1.157       .  T
C1344      N1347   1.157   1_455  T
C1353      C1354   1.411       .  A
C1353      C1358   1.399       .  A
C1353      C1367   1.444       .  S
C1354      C1359   1.486       .  S
C1354      C1355   1.405       .  A
C1355      C1356   1.405       .  A
C1355      H1374   1.084   1_455  S
C1356      C1357   1.407       .  A
C1357      C1358   1.400       .  A
C1358      H1373   1.084       .  S
C1359      C1360   1.401       .  A
C1359      C1364   1.410       .  A
C1360      C1361   1.405       .  A
C1360      H1375   1.085       .  S
C1361      C1362   1.419       .  A
C1361      C1365   1.445   1_455  S
C1362      C1363   1.406       .  A
C1363      C1364   1.401       .  A
C1363      H1376   1.085       .  S
C1364      C1366   1.444       .  S
C1365      N1369   1.158       .  T
C1366      N1370   1.157       .  T
C1367      N1372   1.157       .  T
C1368      N1371   1.157   1_554  T
C1377      C1378   1.415       .  A
C1377      C1382   1.408       .  A
C1377      C1391   1.442       .  S
C1378      C1383   1.498       .  S
C1378      C1379   1.404       .  A
C1379      C1380   1.400       .  A
C1379      H1398   1.085       .  S
C1380      C1381   1.413       .  A
C1381      C1382   1.403       .  A
C1382      H1397   1.084       .  S
C1383      C1384   1.404       .  A
C1383      C1388   1.411   1_455  A
C1384      C1385   1.407       .  A
C1384      H1399   1.085       .  S
C1385      C1386   1.421       .  A
C1385      C1389   1.444       .  S
C1386      C1387   1.411   1_455  A
C1387      C1388   1.403       .  A
C1387      H1400   1.084       .  S
C1388      C1390   1.444       .  S
C1389      N1393   1.157       .  T
C1390      N1394   1.157       .  T
C1391      N1396   1.157       .  T
C1392      N1395   1.157   1_454  T
C1401      C1402   1.413       .  A
C1401      C1406   1.410       .  A
C1401      C1415   1.442       .  S
C1402      C1407   1.491       .  S
C1402      C1403   1.402   1_655  A
C1403      C1404   1.395       .  A
C1403      H1422   1.085       .  S
C1404      C1405   1.413   1_455  A
C1404      C1416   1.445       .  S
C1405      C1406   1.406       .  A
C1406      H1421   1.084       .  S
C1407      C1408   1.402       .  A
C1407      C1412   1.411       .  A
C1408      C1409   1.398       .  A
C1408      H1423   1.085   1_655  S
C1409      C1410   1.413       .  A
C1410      C1411   1.408       .  A
C1411      C1412   1.406       .  A
C1411      H1424   1.085       .  S
C1412      C1414   1.443       .  S
C1413      N1417   1.157       .  T
C1414      N1418   1.157       .  T
C1415      N1420   1.157       .  T
C1416      N1419   1.157       .  T
C1425      C1426   1.412   1_455  A
C1425      C1430   1.401       .  A
C1425      C1439   1.444       .  S
C1426      C1431   1.490       .  S
C1426      C1427   1.406       .  A
C1427      C1428   1.400   1_655  A
C1427      H1446   1.085       .  S
C1428      C1429   1.410       .  A
C1428      C1440   1.444       .  S
C1429      C1430   1.405       .  A
C1430      H1445   1.082       .  S
C1431      C1432   1.406   1_655  A
C1431      C1436   1.412       .  A
C1432      C1433   1.403   1_455  A
C1432      H1447   1.084       .  S
C1433      C1434   1.412       .  A
C1433      C1437   1.442   1_655  S
C1434      C1435   1.402       .  A
C1435      C1436   1.396       .  A
C1436      C1438   1.445       .  S
C1437      N1441   1.157       .  T
C1438      N1442   1.157       .  T
C1439      N1444   1.157       .  T
C1440      N1443   1.157       .  T
C1449      C1450   1.411       .  A
C1449      C1454   1.408       .  A
C1449      C1463   1.442       .  S
C1450      C1455   1.488       .  S
C1450      C1451   1.400       .  A
C1451      C1452   1.398       .  A
C1451      H1470   1.085   1_655  S
C1452      C1453   1.416       .  A
C1452      C1464   1.445   1_655  S
C1453      C1454   1.406       .  A
C1454      H1469   1.084       .  S
C1455      C1456   1.400   1_655  A
C1455      C1460   1.410       .  A
C1456      C1457   1.402       .  A
C1456      H1471   1.085       .  S
C1457      C1458   1.421   1_455  A
C1457      C1461   1.444       .  S
C1458      C1459   1.410       .  A
C1459      C1460   1.405       .  A
C1459      H1472   1.084       .  S
C1460      C1462   1.443       .  S
C1461      N1465   1.157       .  T
C1462      N1466   1.157       .  T
C1463      N1468   1.157       .  T
C1464      N1467   1.157   1_556  T
