geometry optimzed in LAMMPS
_audit_creation_date              2020-12-01 
_audit_creation_method            'lammps2cif' 
_symmetry_space_group_name_H-M    'P1' 
_symmetry_Int_Tables_number       1 
_symmetry_cell_setting            triclinic 
loop_ 
_symmetry_equiv_pos_as_xyz 
  x,y,z 
_cell_length_a                    34.69784726 
_cell_length_b                    34.37197012894018 
_cell_length_c                    40.98179787465109 
_cell_angle_alpha                 89.72593104868128 
_cell_angle_beta                  89.32319518355972 
_cell_angle_gamma                 90.01550736343056 
loop_ 
_atom_site_label 
_atom_site_type_symbol 
_atom_site_fract_x 
_atom_site_fract_y 
_atom_site_fract_z 
_atom_site_charge 
C1          C  0.26877639  0.27793237  0.10746417     0.86000
C2          C  0.29580683  0.27019976  0.13614877    -0.54200
C3          C  0.29382617  0.23266123  0.14793220     0.09000
C4          C  0.26217674  0.20782803  0.13177767     0.19900
C5          C  0.27864932  0.24623961  0.08328109    -0.54900
C6          C  0.27569581  0.20951204  0.09559827     0.09100
C7          C  0.22878773  0.26862523  0.11962384    -0.54500
C8          C  0.22406940  0.23326051  0.13357235     0.09600
H9          H  0.31648769  0.29142059  0.14475709     0.14200
H10         H  0.25933632  0.17797956  0.14197917    -0.00100
H11         H  0.28783250  0.25216849  0.05828637     0.14500
H12         H  0.20572806  0.29000720  0.11834254     0.14200
C13         C  0.99869605  0.05370439  0.14355454     0.86000
C14         C  0.48931463  0.08382389  0.11537394    -0.54200
C15         C  0.45353426  0.07914876  0.10163464     0.09000
C16         C  0.43038645  0.04448457  0.11618394     0.19900
C17         C  0.46316495  0.05997298  0.16696649    -0.54900
C18         C  0.42748961  0.05560489  0.15284888     0.09100
C19         C  0.49270862  0.01529430  0.12869215    -0.54500
C20         C  0.45857239  0.00831061  0.11441939     0.09600
H21         H  0.00917338  0.10510076  0.10753559     0.14200
H22         H  0.40203735  0.03975723  0.10453853    -0.00100
H23         H  0.46662525  0.06725720  0.19251009     0.14500
H24         H  0.01751120  0.49441912  0.13229304     0.14200
C25         C  0.00013118  0.22461238  0.14107093     0.86000
C26         C  0.46504424  0.21831833  0.16445628    -0.54200
C27         C  0.42925931  0.22317323  0.15086571     0.09000
C28         C  0.43152671  0.23696565  0.11478105     0.19900
C29         C  0.49093189  0.19855105  0.11196168    -0.54900
C30         C  0.45470066  0.20352500  0.09887318     0.09100
C31         C  0.49362581  0.26622849  0.12829871    -0.54500
C32         C  0.45942437  0.27349857  0.11406164     0.09600
H33         H  0.46868652  0.20935067  0.18969354     0.14200
H34         H  0.40295928  0.24211836  0.10361330    -0.00100
H35         H  0.01130667  0.17393690  0.10500758     0.14500
H36         H  0.01767556  0.28637130  0.12707153     0.14200
C37         C  0.02354793  0.38972662  0.47438080     0.86000
C38         C  0.01385727  0.35411240  0.45385010    -0.54200
C39         C  0.03188582  0.35315292  0.42419660     0.09000
C40         C  0.05945129  0.38854713  0.41808715     0.19900
C41         C  0.06721674  0.38974850  0.47703590    -0.54900
C42         C  0.08777537  0.38882912  0.44804965     0.09100
C43         C  0.01415998  0.42457741  0.45278654    -0.54500
C44         C  0.03186834  0.42428053  0.42304794     0.09600
H45         H  0.49164328  0.33365466  0.46258412     0.14200
H46         H  0.07378447  0.38801299  0.39383906    -0.00100
H47         H  0.08022114  0.39348997  0.00324906     0.14500
H48         H  0.49219194  0.44708200  0.46192037     0.14200
C49         C  0.19526354  0.38832575  0.47587149     0.86000
C50         C  0.20415075  0.42523014  0.45687952    -0.54200
C51         C  0.18798616  0.42712976  0.42700006     0.10600
C52         C  0.16218128  0.39126268  0.41914128     0.19900
C53         C  0.15150967  0.38624334  0.47797922    -0.54900
C54         C  0.13237471  0.38830898  0.44856373     0.09100
C55         C  0.20717219  0.35519889  0.45362317    -0.54500
C56         C  0.19074362  0.35653524  0.42380299     0.09600
H57         H  0.22316236  0.44776030  0.46602556     0.14200
H58         H  0.14904137  0.39264201  0.39467900    -0.00100
H59         H  0.13809238  0.38251599  0.00311689     0.14500
H60         H  0.22904071  0.33392616  0.46004357     0.14200
O61         O  0.25158976  0.43584534  0.10589855    -0.58300
C62         C  0.26860946  0.31760306  0.09277459     0.74400
O63         O  0.25303980  0.38870853  0.00634879    -0.59400
C64         C  0.26681850  0.46440977  0.09076261     0.74300
C65         C  0.34054014  0.39198821  0.05755807     0.76700
Cd66       Cd  0.26429482  0.39049237  0.06247309     1.37500
O67         O  0.25198915  0.34586479  0.10702303    -0.58300
O68         O  0.32252952  0.38955121  0.08435105    -0.57100
C69         C  0.21670599  0.38761489  0.00791768     0.76700
O70         O  0.32222917  0.39361610  0.03101026    -0.59400
O71         O  0.28144445  0.32345406  0.06418757    -0.57900
O72         O  0.27844212  0.45863871  0.06187873    -0.57900
O73         O  0.20089466  0.38724338  0.03608309    -0.57100
O74         O  0.48082534  0.44237663  0.10372095    -0.58300
C75         C  0.45537727  0.31302053  0.09852045     0.74400
O76         O  0.40180586  0.39406159  0.03308728    -0.59400
C77         C  0.45606539  0.46911165  0.09895195     0.74300
C78         C  0.00207027  0.39227255  0.00927539     0.76700
Cd79       Cd  0.45605608  0.39147305  0.06713813     1.37500
O80         O  0.47811885  0.34069254  0.10574245    -0.58300
O81         O  0.01835652  0.39067034  0.03682895    -0.57100
C82         C  0.38095530  0.39252162  0.05871210     0.76700
O83         O  0.46529718  0.39021916  0.00815557    -0.59400
O84         O  0.43175128  0.32082352  0.07633516    -0.57900
O85         O  0.43015040  0.46080790  0.07891700    -0.57900
O86         O  0.39622891  0.39114254  0.08658338    -0.57100
C87         C  0.26716036  0.50407052  0.10521383     0.86000
C88         C  0.27379754  0.03712845  0.08082239    -0.54200
C89         C  0.27144384  0.07349956  0.09372864     0.09000
C90         C  0.25942315  0.07404598  0.13033876     0.19900
C91         C  0.29383576  0.01207192  0.13299323    -0.54900
C92         C  0.29188499  0.04912522  0.14544104     0.09100
C93         C  0.22607798  0.01309073  0.11873918    -0.54500
C94         C  0.22159296  0.04825078  0.13289236     0.09600
H95         H  0.28217483  0.03193095  0.05557113     0.14200
H96         H  0.25671619  0.10356628  0.14098415    -0.00100
H97         H  0.31641092  0.49009885  0.14116765     0.14500
H98         H  0.20488041  0.49092816  0.11853961     0.14200
O99         O  0.06627401  0.19997495  0.14991908    -0.58300
C100        C  0.18625990  0.22756178  0.15135076     0.74400
O101        O  0.11994551  0.24460526  0.24673855    -0.59400
C102        C  0.03963548  0.22380882  0.15699740     0.74300
C103        C  0.11017094  0.16133736  0.22347906     0.76700
Cd104      Cd  0.11420838  0.22917634  0.19058415     1.37500
O105        O  0.16192204  0.25525334  0.15268048    -0.58300
O106        O  0.07951545  0.17939052  0.21693481    -0.57100
C107        C  0.11618419  0.28094883  0.24504676     0.76700
O108        O  0.14212630  0.17881517  0.22106331    -0.59400
O109        O  0.17659346  0.19720765  0.16679973    -0.57900
O110        O  0.04847757  0.24985399  0.17736747    -0.57900
O111        O  0.11315245  0.29561973  0.21668541    -0.57100
O112        O  0.15863970  0.02729286  0.15104438    -0.58300
C113        C  0.03807548  0.05539724  0.15959501     0.74400
O114        O  0.12065409  0.03558656  0.24788243    -0.59400
C115        C  0.18424993  0.05382640  0.15123439     0.74300
C116        C  0.10974505  0.12023966  0.22349771     0.76700
Cd117      Cd  0.11362099  0.05150486  0.19193095     1.37500
O118        O  0.06514274  0.07792228  0.15057098    -0.58300
O119        O  0.07905737  0.10291462  0.21594167    -0.57100
C120        C  0.11841801  0.49959653  0.24601267     0.76700
O121        O  0.14132129  0.10201215  0.22228939    -0.59400
O122        O  0.04657427  0.03118264  0.18178740    -0.57900
O123        O  0.17647457  0.08273225  0.16895535    -0.57900
O124        O  0.11851109  0.48501203  0.21757979    -0.57100
C125        C  0.11636863  0.47673775  0.27701302     0.86000
C126        C  0.14880565  0.48741518  0.29976874    -0.54200
C127        C  0.14690610  0.46996675  0.32939768     0.09000
C128        C  0.11145370  0.44151305  0.33335143     0.19900
C129        C  0.11779883  0.43277146  0.27434265    -0.54900
C130        C  0.11454275  0.41249520  0.30342434     0.09100
C131        C  0.07914210  0.48557132  0.29570869    -0.54500
C132        C  0.07586962  0.46803403  0.32537831     0.09600
H133        H  0.17188015  0.00736330  0.29315837     0.14200
H134        H  0.10932468  0.42721782  0.35753369    -0.00100
H135        H  0.12142174  0.41992772  0.25056944     0.14500
H136        H  0.05819541  0.00586838  0.28681195     0.14200
C137        C  0.11510738  0.30356536  0.27622566     0.86000
C138        C  0.08083776  0.29213770  0.29745025    -0.54200
C139        C  0.07913576  0.30974698  0.32709077     0.09000
C140        C  0.11383031  0.33823936  0.33286733     0.19900
C141        C  0.11315517  0.34773684  0.27371633    -0.54900
C142        C  0.11335342  0.36758105  0.30308084     0.09100
C143        C  0.15019655  0.29506551  0.29660269    -0.54500
C144        C  0.15018992  0.31231958  0.32630459     0.09600
H145        H  0.05884694  0.27199133  0.28923704     0.14200
H146        H  0.11349539  0.35247625  0.35703675    -0.00100
H147        H  0.11176843  0.36097487  0.24988679     0.14500
H148        H  0.17354714  0.27644986  0.28809633     0.14200
O149        O  0.40332075  0.95117697  0.34935946    -0.58300
C150        C  0.28217024  0.48097398  0.34817403     0.74400
O151        O  0.34665507  0.99324872  0.25191170    -0.59400
C152        C  0.42954353  0.47576335  0.34347549     0.74300
C153        C  0.36407599  0.41251581  0.27690813     0.76700
Cd154      Cd  0.35482462  0.48044186  0.30969130     1.37500
O155        O  0.30565611  0.00827296  0.34372052    -0.58300
O156        O  0.39301169  0.43152204  0.28615666    -0.57100
C157        C  0.35050191  0.02961606  0.25326908     0.76700
O158        O  0.33105753  0.42798324  0.27883196    -0.59400
O159        O  0.29049020  0.45115074  0.33169052    -0.57900
O160        O  0.42024448  0.50236342  0.32348074    -0.57900
O161        O  0.35443306  0.04424664  0.28142967    -0.57100
O162        O  0.42780690  0.28104267  0.31872966    -0.58300
C163        C  0.29366908  0.30958742  0.34208977     0.74400
O164        O  0.33690270  0.35174214  0.27118847    -0.59400
C165        C  0.43521619  0.30601473  0.34042457     0.74300
C166        C  0.35869951  0.24990058  0.25237900     0.76700
Cd167      Cd  0.36403809  0.30342079  0.30442345     1.37500
O168        O  0.31606200  0.28032956  0.34231344    -0.58300
O169        O  0.35895556  0.23617930  0.28118761    -0.57100
C170        C  0.36733110  0.37174405  0.27314233     0.76700
O171        O  0.36037591  0.28629955  0.24927615    -0.59400
O172        O  0.30540489  0.33872914  0.32607446    -0.57900
O173        O  0.40868317  0.32999808  0.34712983    -0.57900
O174        O  0.39850118  0.35541607  0.28119494    -0.57100
C175        C  0.35193944  0.05261246  0.22211834     0.86000
C176        C  0.38767845  0.04223345  0.20196502    -0.54200
C177        C  0.39083105  0.06067158  0.17263294     0.09000
C178        C  0.35598502  0.08878636  0.16605475     0.19900
C179        C  0.35303671  0.09665326  0.22522195    -0.54900
C180        C  0.35525019  0.11718027  0.19620979     0.09100
C181        C  0.31781615  0.04424957  0.20037160    -0.54500
C182        C  0.31925242  0.06236536  0.17091229     0.09600
H183        H  0.40950286  0.02215994  0.21070613     0.14200
H184        H  0.35776576  0.10353751  0.14202955    -0.00100
H185        H  0.35175788  0.10948907  0.24928173     0.14500
H186        H  0.29523742  0.02363643  0.20699859     0.14200
C187        C  0.35759758  0.22614941  0.22210921     0.86000
C188        C  0.32276705  0.23607672  0.20165971    -0.54200
C189        C  0.32196443  0.21824082  0.17229010     0.09000
C190        C  0.35738281  0.19062944  0.16606318     0.19900
C191        C  0.35730860  0.18209155  0.22536401    -0.54900
C192        C  0.35681836  0.16186452  0.19625925     0.09100
C193        C  0.39250531  0.23537871  0.20085227    -0.54500
C194        C  0.39345919  0.21759927  0.17145251     0.09600
H195        H  0.30136826  0.25750618  0.20906081     0.14200
H196        H  0.35731526  0.17622336  0.14198928    -0.00100
H197        H  0.35759431  0.16912378  0.24947710     0.14500
H198        H  0.41534892  0.25474591  0.20876950     0.14200
C199        C  0.20100119  0.03083981  0.39376009     0.86000
C200        C  0.17164721  0.02160435  0.36687443    -0.54200
C201        C  0.17341375  0.48458727  0.35507448     0.09000
C202        C  0.20716636  0.46097197  0.36939118     0.19900
C203        C  0.19457040  0.99860196  0.41903059    -0.54900
C204        C  0.19654288  0.46155206  0.40612273     0.09100
C205        C  0.23999197  0.02259485  0.37887536    -0.54500
C206        C  0.24425794  0.48752083  0.36548262     0.09600
H207        H  0.15025954  0.04232800  0.35853405     0.14200
H208        H  0.21023427  0.43134353  0.35898160    -0.00100
H209        H  0.18706482  0.00431867  0.44437476     0.14500
H210        H  0.26251649  0.04461420  0.37832358     0.14200
C211        C  0.46933422  0.47630567  0.35904864     0.86000
C212        C  0.00373093  0.47017673  0.33209866    -0.54200
C213        C  0.03979122  0.47442732  0.34542667     0.09000
C214        C  0.03821126  0.48510057  0.38212822     0.19900
C215        C  0.47928807  0.44669067  0.38615822    -0.54900
C216        C  0.01628247  0.44997144  0.39680793     0.09100
C217        C  0.47417297  0.01596760  0.37298514    -0.54500
C218        C  0.01099762  0.02340304  0.38615801     0.09600
H219        H  0.49925809  0.46593553  0.30917735     0.14200
H220        H  0.06694808  0.49003002  0.39302932    -0.00100
H221        H  0.45983689  0.42371857  0.39402394     0.14500
H222        H  0.45090424  0.03719575  0.37332663     0.14200
C223        C  0.47333180  0.30455703  0.35764713     0.86000
C224        C  0.48110255  0.33266519  0.38597227    -0.54200
C225        C  0.01730260  0.32639090  0.39853499     0.09000
C226        C  0.04066157  0.29222254  0.38394246     0.19900
C227        C  0.00790769  0.30840013  0.33325584    -0.54900
C228        C  0.04334508  0.30401497  0.34734445     0.09100
C229        C  0.47809310  0.26438085  0.37198260    -0.54500
C230        C  0.01255028  0.25600301  0.38569940     0.09600
H231        H  0.46095725  0.35504167  0.39360716     0.14200
H232        H  0.06904575  0.28752859  0.39556045    -0.00100
H233        H  0.50436721  0.31844831  0.30911921     0.14500
H234        H  0.45513366  0.24283374  0.37112949     0.14200
C235        C  0.27600024  0.14365918  0.02223218     0.86000
C236        C  0.26704283  0.17814691  0.04348925    -0.54200
C237        C  0.28338142  0.17688111  0.07343963     0.09000
C238        C  0.30927750  0.14073182  0.07909894     0.19900
C239        C  0.31975964  0.14205707  0.02000112    -0.54900
C240        C  0.33891508  0.14056100  0.04945849     0.09100
C241        C  0.26421329  0.10866413  0.04245024    -0.54500
C242        C  0.28067394  0.10694848  0.07241419     0.09600
H243        H  0.24798218  0.20148002  0.03575087     0.14200
H244        H  0.32265381  0.13956940  0.10345201    -0.00100
H245        H  0.33318402  0.14448080  0.49758302     0.14500
H246        H  0.24357797  0.08723090  0.03400431     0.14200
C247        C  0.44762685  0.13975344  0.02357828     0.86000
C248        C  0.45765600  0.10535223  0.04558960    -0.54200
C249        C  0.43947423  0.10556094  0.07521185     0.09000
C250        C  0.41175440  0.14118779  0.07986822     0.19900
C251        C  0.40399549  0.13881087  0.02093992    -0.54900
C252        C  0.38346857  0.13995523  0.04992478     0.09100
C253        C  0.45669071  0.17585380  0.04363735    -0.54500
C254        C  0.43906712  0.17689713  0.07340415     0.09600
H255        H  0.47934835  0.08384542  0.03908643     0.14200
H256        H  0.39735753  0.14183459  0.10411427    -0.00100
H257        H  0.39150136  0.13922000  0.49852092     0.14500
H258        H  0.47811341  0.19725023  0.03606964     0.14200
O259        O  0.21199883  0.10076160  0.39045606    -0.58300
C260        C  0.20885607  0.22374556  0.40422678     0.74400
O261        O  0.15035206  0.14670255  0.46938890    -0.59400
C262        C  0.20163606  0.07154082  0.40750769     0.74300
C263        C  0.25436092  0.14706180  0.49190758     0.76700
Cd264      Cd  0.20702164  0.14844465  0.43598928     1.37500
O265        O  0.23220507  0.19594967  0.39835243    -0.58300
O266        O  0.27020152  0.14403741  0.46390719    -0.57100
C267        C  0.13125504  0.14649848  0.44319216     0.76700
O268        O  0.21826139  0.15186124  0.49286437    -0.59400
O269        O  0.18395686  0.21764545  0.42633774    -0.57900
O270        O  0.19572907  0.07782075  0.43745986    -0.57900
O271        O  0.14837134  0.14887782  0.41594627    -0.57100
O272        O  0.49003014  0.08964208  0.39668532    -0.58300
C273        C  0.01627221  0.21727137  0.40226343     0.74400
O274        O  0.50576971  0.13872826  0.49285320    -0.59400
C275        C  0.01549710  0.06226190  0.40246471     0.74300
C276        C  0.09088907  0.14347337  0.44271569     0.76700
Cd277      Cd  0.01592879  0.13983297  0.43432237     1.37500
O278        O  0.49572282  0.18939096  0.39297524    -0.58300
O279        O  0.07520091  0.14373591  0.41501195    -0.57100
C280        C  0.46942112  0.13944268  0.49315680     0.76700
O281        O  0.07051731  0.14035765  0.46854664    -0.59400
O282        O  0.03904699  0.21060421  0.42529964    -0.57900
O283        O  0.04272672  0.07095468  0.42112958    -0.57900
O284        O  0.45311408  0.14009814  0.46559016    -0.57100
C285        C  0.25397737  0.30774907  0.35779775     0.86000
C286        C  0.22115258  0.31201635  0.33345332    -0.54200
C287        C  0.18492523  0.30747528  0.34682035     0.09000
C288        C  0.18517910  0.29698084  0.38347962     0.19900
C289        C  0.24360489  0.33695084  0.38493216    -0.54900
C290        C  0.20695052  0.33175740  0.39770762     0.09100
C291        C  0.24823164  0.26814112  0.37321755    -0.54500
C292        C  0.21343417  0.26161175  0.38695016     0.09600
H293        H  0.22614591  0.31930014  0.30791962     0.14200
H294        H  0.15612048  0.29218043  0.39444063    -0.00100
H295        H  0.26287457  0.35984424  0.39286345     0.14500
H296        H  0.27100769  0.24651218  0.37428201     0.14200
C297        C  0.26881332  0.27956111  0.60887248     0.86000
C298        C  0.29758753  0.27192856  0.63633309    -0.54200
C299        C  0.29597606  0.23454398  0.64853601     0.09000
C300        C  0.26328728  0.20965566  0.63375153     0.19900
C301        C  0.27705007  0.24747913  0.58450097    -0.54900
C302        C  0.27486518  0.21079365  0.59708347     0.09100
C303        C  0.22967449  0.27080192  0.62297167    -0.54500
C304        C  0.22529312  0.23528730  0.63671884     0.09600
H305        H  0.31867061  0.29322439  0.64410165     0.14200
H306        H  0.26085340  0.17991842  0.64426269    -0.00100
H307        H  0.28527553  0.25322495  0.55925646     0.14500
H308        H  0.20684696  0.29251217  0.62271148     0.14200
C309        C  0.99799422  0.05484708  0.64286866     0.86000
C310        C  0.48968559  0.08341479  0.61613306    -0.54200
C311        C  0.45372439  0.07880079  0.60261132     0.09000
C312        C  0.43078749  0.04418206  0.61715441     0.19900
C313        C  0.46400900  0.05932017  0.66778407    -0.54900
C314        C  0.42827449  0.05533877  0.65378679     0.09100
C315        C  0.49321631  0.01482442  0.62919199    -0.54500
C316        C  0.45899582  0.00808824  0.61495294     0.09600
H317        H  0.00894173  0.10675154  0.60757016     0.14200
H318        H  0.40232529  0.03956168  0.60567040    -0.00100
H319        H  0.46766664  0.06670824  0.69328651     0.14500
H320        H  0.01623418  0.49379086  0.62977442     0.14200
C321        C  0.99995891  0.22542881  0.64136053     0.86000
C322        C  0.46745072  0.21910249  0.66597245    -0.54200
C323        C  0.43150050  0.22365634  0.65260762     0.09000
C324        C  0.43317780  0.23638023  0.61630733     0.19900
C325        C  0.49217821  0.19727626  0.61369340    -0.54900
C326        C  0.45583387  0.20237232  0.60084243     0.09100
C327        C  0.49575321  0.26546162  0.62803024    -0.54500
C328        C  0.46120175  0.27267464  0.61449552     0.09600
H329        H  0.47167061  0.21079485  0.69128578     0.14200
H330        H  0.40443351  0.24139190  0.60542154    -0.00100
H331        H  0.01105766  0.17615883  0.60381844     0.14500
H332        H  0.01736294  0.28764622  0.62905749     0.14200
C333        C  0.02367077  0.39149894  0.97721868     0.86000
C334        C  0.01377185  0.35566410  0.95699120    -0.54200
C335        C  0.03153027  0.35432344  0.92723085     0.09000
C336        C  0.05887682  0.38973667  0.92060964     0.19900
C337        C  0.06735923  0.39162308  0.97948091    -0.54900
C338        C  0.08748518  0.39014668  0.95026443     0.09100
C339        C  0.01405158  0.42617759  0.95550937    -0.54500
C340        C  0.03146104  0.42563333  0.92564917     0.09600
H341        H  0.49355114  0.33273472  0.96350359     0.14200
H342        H  0.07296237  0.38898479  0.89623891    -0.00100
H343        H  0.07973198  0.39107637  0.50091951     0.14500
H344        H  0.49080822  0.44600281  0.96038025     0.14200
C345        C  0.19496142  0.38829639  0.97689486     0.86000
C346        C  0.20367835  0.42548282  0.95807348    -0.54200
C347        C  0.18725723  0.42756737  0.92825035     0.10600
C348        C  0.16138837  0.39189489  0.92044637     0.19900
C349        C  0.15135655  0.38613229  0.97934682    -0.54900
C350        C  0.13196225  0.38880694  0.95017335     0.09100
C351        C  0.20671269  0.35547253  0.95430301    -0.54500
C352        C  0.19017397  0.35728218  0.92458070     0.09600
H353        H  0.22286252  0.44788075  0.96717400     0.14200
H354        H  0.14797913  0.39352019  0.89612753    -0.00100
H355        H  0.13803479  0.38316000  0.50168635     0.14500
H356        H  0.22875662  0.33422059  0.96034942     0.14200
O357        O  0.23818818  0.43992274  0.59795352    -0.58300
C358        C  0.26763359  0.31899478  0.59376135     0.74400
O359        O  0.25322637  0.39047596  0.50581477    -0.59400
C360        C  0.26420912  0.46506256  0.59167208     0.74300
C361        C  0.34004969  0.38957564  0.55740380     0.76700
Cd362      Cd  0.26371821  0.39154641  0.56243261     1.37500
O363        O  0.25707632  0.34870780  0.60982635    -0.58300
O364        O  0.32189213  0.38376420  0.58379119    -0.57100
C365        C  0.21688407  0.38825784  0.50704443     0.76700
O366        O  0.32185205  0.39627480  0.53127377    -0.59400
O367        O  0.27349139  0.32343434  0.56349261    -0.57900
O368        O  0.28932108  0.45632505  0.57050277    -0.57900
O369        O  0.20085472  0.38743315  0.53506560    -0.57100
O370        O  0.47831546  0.44149317  0.60492923    -0.58300
C371        C  0.45657570  0.31212344  0.59902486     0.74400
O372        O  0.40149416  0.39140650  0.53328708    -0.59400
C373        C  0.45465599  0.46877222  0.59860655     0.74300
C374        C  0.00174562  0.39047917  0.50635553     0.76700
Cd375      Cd  0.45572878  0.39053163  0.56745174     1.37500
O376        O  0.47758823  0.34068517  0.60744966    -0.58300
O377        O  0.01801198  0.39011219  0.53392699    -0.57100
C378        C  0.38048922  0.38963976  0.55877408     0.76700
O379        O  0.46500562  0.39100814  0.50851739    -0.59400
O380        O  0.43434346  0.31897291  0.57560707    -0.57900
O381        O  0.43013351  0.46076645  0.57724398    -0.57900
O382        O  0.39562178  0.38822350  0.58669848    -0.57100
C383        C  0.26384180  0.50440744  0.60684860     0.86000
C384        C  0.27455617  0.03723119  0.58076929    -0.54200
C385        C  0.27154526  0.07345907  0.59401707     0.09000
C386        C  0.26044660  0.07325955  0.63076566     0.19900
C387        C  0.29724348  0.01256933  0.63233419    -0.54900
C388        C  0.29416513  0.04943108  0.64506910     0.09100
C389        C  0.22903906  0.01120105  0.61980147    -0.54500
C390        C  0.22361637  0.04616105  0.63388280     0.09600
H391        H  0.28248403  0.03246196  0.55536125     0.14200
H392        H  0.25699639  0.10259356  0.64163401    -0.00100
H393        H  0.31646970  0.49183135  0.63957668     0.14500
H394        H  0.20314365  0.49018406  0.62445666     0.14200
O395        O  0.06765291  0.20367369  0.64806386    -0.58300
C396        C  0.18721593  0.22887939  0.65396180     0.74400
O397        O  0.11609314  0.24507270  0.74872498    -0.59400
C398        C  0.03942627  0.22434740  0.65750932     0.74300
C399        C  0.11081284  0.15979208  0.72195932     0.76700
Cd400      Cd  0.11400648  0.22975971  0.69201315     1.37500
O401        O  0.16045789  0.25411728  0.65166589    -0.58300
O402        O  0.08014066  0.17750371  0.71495800    -0.57100
C403        C  0.11456845  0.28158845  0.74691655     0.76700
O404        O  0.14245227  0.17794195  0.72099974    -0.59400
O405        O  0.17979260  0.20069860  0.67280607    -0.57900
O406        O  0.04659079  0.24747400  0.68062034    -0.57900
O407        O  0.11396959  0.29626826  0.71842002    -0.57100
O408        O  0.16127666  0.02352024  0.65236804    -0.58300
C409        C  0.03778709  0.05546239  0.65834687     0.74400
O410        O  0.11945426  0.03542038  0.74636035    -0.59400
C411        C  0.18573998  0.05118024  0.65148330     0.74300
C412        C  0.11081133  0.11871941  0.72146837     0.76700
Cd413      Cd  0.11366999  0.05003436  0.69021487     1.37500
O414        O  0.06505138  0.07782279  0.64941554    -0.58300
O415        O  0.08006024  0.10130937  0.71428944    -0.57100
C416        C  0.11570955  0.50127971  0.74759225     0.76700
O417        O  0.14245572  0.10061606  0.71992669    -0.59400
O418        O  0.04645607  0.03033154  0.67975517    -0.57900
O419        O  0.17604080  0.08129812  0.66695398    -0.57900
O420        O  0.11519717  0.48672710  0.71918152    -0.57100
C421        C  0.11484929  0.47816730  0.77854404     0.86000
C422        C  0.14811299  0.48845101  0.80060501    -0.54200
C423        C  0.14705547  0.47064333  0.83016309     0.09000
C424        C  0.11150254  0.44254835  0.83481514     0.19900
C425        C  0.11587654  0.43411455  0.77569854    -0.54900
C426        C  0.11366887  0.41369056  0.80479037     0.09100
C427        C  0.07838813  0.48713062  0.79811554    -0.54500
C428        C  0.07585933  0.46939236  0.82771033     0.09600
H429        H  0.17043548  0.00852449  0.79173027     0.14200
H430        H  0.10994162  0.42813283  0.85897620    -0.00100
H431        H  0.11845032  0.42127458  0.75177624     0.14500
H432        H  0.05668009  0.00472613  0.78591756     0.14200
C433        C  0.11392096  0.30447874  0.77804969     0.86000
C434        C  0.07984968  0.29359661  0.79980947    -0.54200
C435        C  0.07887815  0.31131512  0.82947216     0.09000
C436        C  0.11386647  0.33960442  0.83452801     0.19900
C437        C  0.11243866  0.34869813  0.77534676    -0.54900
C438        C  0.11294102  0.36874953  0.80459225     0.09100
C439        C  0.14922589  0.29576344  0.79804497    -0.54500
C440        C  0.14993529  0.31335153  0.82755593     0.09600
H441        H  0.05749609  0.27365262  0.79196119     0.14200
H442        H  0.11406018  0.35401867  0.85861603    -0.00100
H443        H  0.11105085  0.36187509  0.75143957     0.14500
H444        H  0.17227095  0.27685714  0.78938374     0.14200
O445        O  0.40399481  0.95201494  0.85026501    -0.58300
C446        C  0.28228634  0.48003956  0.84865923     0.74400
O447        O  0.34809775  0.99419256  0.75203767    -0.59400
C448        C  0.42970736  0.47540692  0.84198317     0.74300
C449        C  0.36336757  0.41324099  0.77558833     0.76700
Cd450      Cd  0.35434841  0.48044596  0.80889283     1.37500
O451        O  0.30740019  0.00785542  0.84499616    -0.58300
O452        O  0.39238136  0.43277706  0.78386912    -0.57100
C453        C  0.35078572  0.03064952  0.75360115     0.76700
O454        O  0.33017688  0.42824876  0.77809399    -0.59400
O455        O  0.29051651  0.45018838  0.83215554    -0.57900
O456        O  0.41965455  0.50288300  0.82311425    -0.57900
O457        O  0.35392072  0.04523983  0.78184442    -0.57100
O458        O  0.42853721  0.28439578  0.81810843    -0.58300
C459        C  0.29379743  0.31167058  0.84249956     0.74400
O460        O  0.33675660  0.35209808  0.77124657    -0.59400
C461        C  0.43532729  0.30811328  0.84087049     0.74300
C462        C  0.36011594  0.25081834  0.75356959     0.76700
Cd463      Cd  0.36434400  0.30488701  0.80513559     1.37500
O464        O  0.31683856  0.28295064  0.84378259    -0.58300
O465        O  0.35851453  0.23727629  0.78243820    -0.57100
C466        C  0.36697968  0.37246171  0.77283985     0.76700
O467        O  0.36323044  0.28709427  0.75036726    -0.59400
O468        O  0.30486604  0.34015675  0.82531717    -0.57900
O469        O  0.40814677  0.33079197  0.84888219    -0.57900
O470        O  0.39822256  0.35681581  0.78156935    -0.57100
C471        C  0.35232937  0.05372498  0.72255427     0.86000
C472        C  0.38839995  0.04343513  0.70289608    -0.54200
C473        C  0.39189639  0.06160946  0.67353560     0.09000
C474        C  0.35725212  0.08980568  0.66652349     0.19900
C475        C  0.35316600  0.09775092  0.72568876    -0.54900
C476        C  0.35584307  0.11829336  0.69670262     0.09100
C477        C  0.31865027  0.04518232  0.70039631    -0.54500
C478        C  0.32063606  0.06319951  0.67091381     0.09600
H479        H  0.40999016  0.02321011  0.71181872     0.14200
H480        H  0.35936880  0.10447547  0.64248904    -0.00100
H481        H  0.35142337  0.11045042  0.74965078     0.14500
H482        H  0.29611601  0.02438294  0.70669764     0.14200
C483        C  0.35921386  0.22714843  0.72325515     0.86000
C484        C  0.32524632  0.23832216  0.70220012    -0.54200
C485        C  0.32447585  0.22054664  0.67281417     0.09000
C486        C  0.35926819  0.19203560  0.66701859     0.19900
C487        C  0.35751545  0.18307263  0.72628524    -0.54900
C488        C  0.35743237  0.16304081  0.69701193     0.09100
C489        C  0.39491043  0.23540082  0.70272232    -0.54500
C490        C  0.39586359  0.21797462  0.67318703     0.09600
H491        H  0.30414131  0.26013061  0.70942567     0.14200
H492        H  0.35933948  0.17784919  0.64283914    -0.00100
H493        H  0.35685666  0.17007650  0.75026347     0.14500
H494        H  0.41803517  0.25416291  0.71105541     0.14200
C495        C  0.20124271  0.03122106  0.89234621     0.86000
C496        C  0.17208185  0.02222684  0.86521449    -0.54200
C497        C  0.17410152  0.48486193  0.85553012     0.09000
C498        C  0.20713776  0.46063322  0.87036049     0.19900
C499        C  0.19433653  0.99881085  0.91748194    -0.54900
C500        C  0.19598761  0.46165440  0.90707582     0.09100
C501        C  0.24027964  0.02276371  0.87774082    -0.54500
C502        C  0.24472585  0.48654200  0.86667357     0.09600
H503        H  0.15082373  0.04309027  0.85688258     0.14200
H504        H  0.20979572  0.43089922  0.86007998    -0.00100
H505        H  0.18677772  0.00451559  0.94281207     0.14500
H506        H  0.26290575  0.04467840  0.87743553     0.14200
C507        C  0.46969907  0.47573384  0.85738863     0.86000
C508        C  0.00394973  0.47145269  0.83473535    -0.54200
C509        C  0.03999562  0.47556287  0.84805850     0.09000
C510        C  0.03841995  0.48652934  0.88470236     0.19900
C511        C  0.47907394  0.44611085  0.88464089    -0.54900
C512        C  0.01610247  0.45162978  0.89950764     0.09100
C513        C  0.47568494  0.01585326  0.87253316    -0.54500
C514        C  0.01095586  0.02179075  0.88495715     0.09600
H515        H  0.49988784  0.46488297  0.80763954     0.14200
H516        H  0.06717597  0.49130179  0.89561806    -0.00100
H517        H  0.45917601  0.42355405  0.89254819     0.14500
H518        H  0.45243730  0.03711941  0.87242558     0.14200
C519        C  0.47339872  0.30607914  0.85791291     0.86000
C520        C  0.48149460  0.33305056  0.88687650    -0.54200
C521        C  0.01692290  0.32709694  0.90187706     0.09000
C522        C  0.04054676  0.29325205  0.88670702     0.19900
C523        C  0.00788453  0.31089459  0.83635278    -0.54900
C524        C  0.04330445  0.30600810  0.85023598     0.09100
C525        C  0.47773884  0.26538855  0.87125100    -0.54500
C526        C  0.01257460  0.25671899  0.88775696     0.09600
H527        H  0.46169615  0.35546809  0.89504702     0.14200
H528        H  0.06893715  0.28839198  0.89826445    -0.00100
H529        H  0.50451675  0.32105725  0.80956100     0.14500
H530        H  0.45449586  0.24418085  0.87002743     0.14200
C531        C  0.27579685  0.14486177  0.52335159     0.86000
C532        C  0.26647751  0.17913104  0.54482629    -0.54200
C533        C  0.28259678  0.17784405  0.57490344     0.09000
C534        C  0.30869272  0.14161930  0.58041919     0.19900
C535        C  0.31960709  0.14348977  0.52141239    -0.54900
C536        C  0.33867874  0.14182894  0.55091424     0.09100
C537        C  0.26404493  0.10963068  0.54327418    -0.54500
C538        C  0.28035009  0.10759120  0.57325288     0.09600
H539        H  0.24734649  0.20237645  0.53704872     0.14200
H540        H  0.32191501  0.14026855  0.60484486    -0.00100
H541        H  0.33313087  0.14296345  0.99624157     0.14500
H542        H  0.24370286  0.08809900  0.53450433     0.14200
C543        C  0.44765637  0.13984225  0.52508892     0.86000
C544        C  0.45697505  0.10485972  0.54665094    -0.54200
C545        C  0.43910311  0.10509149  0.57636015     0.09000
C546        C  0.41189337  0.14105561  0.58140940     0.19900
C547        C  0.40399390  0.14004973  0.52250126    -0.54900
C548        C  0.38339999  0.14088181  0.55147229     0.09100
C549        C  0.45758332  0.17531016  0.54555436    -0.54500
C550        C  0.43992978  0.17622869  0.57528610     0.09600
H551        H  0.47838843  0.08315344  0.53994295     0.14200
H552        H  0.39764972  0.14162289  0.60569785    -0.00100
H553        H  0.39155468  0.13701210  0.99710595     0.14500
H554        H  0.47945258  0.19636453  0.53823144     0.14200
O555        O  0.21347798  0.10122369  0.88956321    -0.58300
C556        C  0.20951544  0.22506369  0.90452268     0.74400
O557        O  0.15074030  0.14949214  0.96903537    -0.59400
C558        C  0.20210515  0.07201287  0.90623398     0.74300
C559        C  0.25444763  0.14598458  0.99096385     0.76700
Cd560      Cd  0.20731504  0.14902233  0.93524904     1.37500
O561        O  0.23324884  0.19758845  0.89878241    -0.58300
O562        O  0.27035838  0.14468012  0.96291037    -0.57100
C563        C  0.13169160  0.14582184  0.94298218     0.76700
O564        O  0.21823073  0.14962249  0.99212890    -0.59400
O565        O  0.18387511  0.21823252  0.92584924    -0.57900
O566        O  0.19525649  0.07831745  0.93604365    -0.57900
O567        O  0.14873424  0.14620759  0.91563032    -0.57100
O568        O  0.49064017  0.08968764  0.89520714    -0.58300
C569        C  0.01650204  0.21707842  0.90328860     0.74400
O570        O  0.50558961  0.14111822  0.99108240    -0.59400
C571        C  0.01571012  0.06052569  0.90133129     0.74300
C572        C  0.09140950  0.14137862  0.94268736     0.76700
Cd573      Cd  0.01621672  0.13781602  0.93400671     1.37500
O574        O  0.49295852  0.19032488  0.89287923    -0.58300
O575        O  0.07590508  0.13784149  0.91510034    -0.57100
C576        C  0.46927376  0.13940118  0.99155375     0.76700
O577        O  0.07086079  0.14126973  0.96849695    -0.59400
O578        O  0.03902445  0.20947411  0.92633930    -0.57900
O579        O  0.03939803  0.06702864  0.92374043    -0.57900
O580        O  0.45287409  0.13783567  0.96406206    -0.57100
C581        C  0.25409474  0.30968771  0.85831462     0.86000
C582        C  0.22109263  0.31317150  0.83399249    -0.54200
C583        C  0.18498637  0.30841785  0.84757884     0.09000
C584        C  0.18549133  0.29815025  0.88418170     0.19900
C585        C  0.24328540  0.33907660  0.88525008    -0.54900
C586        C  0.20671932  0.33330842  0.89815183     0.09100
C587        C  0.24891946  0.27018477  0.87413838    -0.54500
C588        C  0.21415851  0.26323652  0.88777504     0.09600
H589        H  0.22582586  0.32034351  0.80840605     0.14200
H590        H  0.15652041  0.29301119  0.89520303    -0.00100
H591        H  0.26224554  0.36227654  0.89309500     0.14500
H592        H  0.27189445  0.24878461  0.87529158     0.14200
C593        C  0.26791284  0.77790422  0.10844035     0.86000
C594        C  0.29623203  0.76992555  0.13615540    -0.54200
C595        C  0.29444099  0.73246214  0.14810679     0.09000
C596        C  0.26189656  0.70778176  0.13295949     0.19900
C597        C  0.27627209  0.74601753  0.08396948    -0.54900
C598        C  0.27392926  0.70925440  0.09637049     0.09100
C599        C  0.22847217  0.76898465  0.12203828    -0.54500
C600        C  0.22397176  0.73352849  0.13592465     0.09600
H601        H  0.31732183  0.79106047  0.14420170     0.14200
H602        H  0.25933196  0.67797835  0.14330714    -0.00100
H603        H  0.28459282  0.75194049  0.05876759     0.14500
H604        H  0.20555403  0.79055970  0.12148131     0.14200
C605        C  0.99850879  0.55563979  0.14590622     0.86000
C606        C  0.48969550  0.58361474  0.11579826    -0.54200
C607        C  0.45376505  0.57854457  0.10230661     0.09000
C608        C  0.43115459  0.54382786  0.11711620     0.19900
C609        C  0.46412878  0.56001412  0.16764123    -0.54900
C610        C  0.42849571  0.55528892  0.15367153     0.09100
C611        C  0.49377377  0.51521381  0.12955087    -0.54500
C612        C  0.45970753  0.50800572  0.11522081     0.09600
H613        H  0.00906385  0.60633235  0.10931327     0.14200
H614        H  0.40275610  0.53877258  0.10564931    -0.00100
H615        H  0.46765330  0.56774210  0.19308768     0.14500
H616        H  0.01793661  0.99267815  0.12939785     0.14200
C617        C  0.99887479  0.72460015  0.14192338     0.86000
C618        C  0.46623592  0.71880172  0.16554531    -0.54200
C619        C  0.43053807  0.72346838  0.15165304     0.09000
C620        C  0.43312354  0.73621768  0.11534796     0.19900
C621        C  0.49220286  0.69711380  0.11359701    -0.54900
C622        C  0.45615648  0.70216387  0.10019293     0.09100
C623        C  0.49546856  0.76514534  0.12813075    -0.54500
C624        C  0.46130020  0.77248008  0.11400061     0.09600
H625        H  0.46988457  0.71055782  0.19093774     0.14200
H626        H  0.40466424  0.74128409  0.10396241    -0.00100
H627        H  0.00983665  0.67412108  0.10563346     0.14500
H628        H  0.01662395  0.78608661  0.12769370     0.14200
C629        C  0.02437620  0.89262955  0.47543766     0.86000
C630        C  0.01485465  0.85646488  0.45564536    -0.54200
C631        C  0.03258323  0.85475233  0.42599268     0.09000
C632        C  0.05988992  0.89024334  0.41908085     0.19900
C633        C  0.06793648  0.89307909  0.47801654    -0.54900
C634        C  0.08831259  0.89118328  0.44900054     0.09100
C635        C  0.01471673  0.92697653  0.45341668    -0.54500
C636        C  0.03230189  0.92620849  0.42366156     0.09600
H637        H  0.49100045  0.83520599  0.46397052     0.14200
H638        H  0.07410437  0.88913789  0.39480868    -0.00100
H639        H  0.08005082  0.89222611  0.00061503     0.14500
H640        H  0.49044934  0.94852756  0.46048468     0.14200
C641        C  0.19546467  0.88893771  0.47679294     0.86000
C642        C  0.20465512  0.92589730  0.45781338    -0.54200
C643        C  0.18845503  0.92781463  0.42789492     0.10600
C644        C  0.16244034  0.89232700  0.42005791     0.19900
C645        C  0.15180618  0.88714154  0.47887307    -0.54900
C646        C  0.13274463  0.88969674  0.44949265     0.09100
C647        C  0.20717560  0.85585214  0.45442835    -0.54500
C648        C  0.19079417  0.85754349  0.42462221     0.09600
H649        H  0.22383381  0.94829914  0.46691958     0.14200
H650        H  0.14927043  0.89386191  0.39561452    -0.00100
H651        H  0.13833797  0.88438242  0.00139025     0.14500
H652        H  0.22890179  0.83438121  0.46074661     0.14200
O653        O  0.25352047  0.93573058  0.10680269    -0.58300
C654        C  0.26773912  0.81760759  0.09355440     0.74400
O655        O  0.25322969  0.89233462  0.00578970    -0.59400
C656        C  0.26541564  0.96498894  0.09057451     0.74300
C657        C  0.34085780  0.89030757  0.05777445     0.76700
Cd658      Cd  0.26412689  0.89047088  0.06240289     1.37500
O659        O  0.25058879  0.84594617  0.10725710    -0.58300
O660        O  0.32267121  0.89653248  0.08397463    -0.57100
C661        C  0.21698391  0.88903575  0.00690934     0.76700
O662        O  0.32265416  0.88493715  0.03157105    -0.59400
O663        O  0.28123780  0.82334163  0.06519694    -0.57900
O664        O  0.27409478  0.95962686  0.06088911    -0.57900
O665        O  0.20103380  0.88631034  0.03495237    -0.57100
O666        O  0.47628997  0.94081384  0.10734619    -0.58300
C667        C  0.45720116  0.81203004  0.09854697     0.74400
O668        O  0.40228367  0.88751522  0.03371958    -0.59400
C669        C  0.45468783  0.96897486  0.09884317     0.74300
C670        C  0.00221157  0.89059653  0.00607756     0.76700
Cd671      Cd  0.45636184  0.89065109  0.06769855     1.37500
O672        O  0.48150100  0.83898679  0.10400968    -0.58300
O673        O  0.01847476  0.89021353  0.03364902    -0.57100
C674        C  0.38127862  0.88925600  0.05921892     0.76700
O675        O  0.46560943  0.89288534  0.00878399    -0.59400
O676        O  0.43134575  0.82071463  0.07850244    -0.57900
O677        O  0.43267891  0.96180197  0.07539886    -0.57900
O678        O  0.39638459  0.89042058  0.08716179    -0.57100
C679        C  0.26555372  0.00466044  0.10509636     0.86000
C680        C  0.27529769  0.53647154  0.08079409    -0.54200
C681        C  0.27302482  0.57290636  0.09361556     0.09000
C682        C  0.26116852  0.57349891  0.13029353     0.19900
C683        C  0.29558200  0.51151879  0.13300854    -0.54900
C684        C  0.29365792  0.54861973  0.14537897     0.09100
C685        C  0.22773275  0.51259078  0.11894841    -0.54500
C686        C  0.22334033  0.54772126  0.13306935     0.09600
H687        H  0.28343255  0.53116925  0.05550626     0.14200
H688        H  0.25851669  0.60304076  0.14090134    -0.00100
H689        H  0.31468093  0.99065938  0.14112919     0.14500
H690        H  0.20330961  0.99133408  0.11820969     0.14200
O691        O  0.06504393  0.69959757  0.15122628    -0.58300
C692        C  0.18615892  0.72761313  0.15381298     0.74400
O693        O  0.11457176  0.74316217  0.24928894    -0.59400
C694        C  0.03841821  0.72354285  0.15808401     0.74300
C695        C  0.11346923  0.66035468  0.22503299     0.76700
Cd696      Cd  0.11334764  0.72843473  0.19248576     1.37500
O697        O  0.16165682  0.75517162  0.15523574    -0.58300
O698        O  0.08199410  0.67725569  0.21908392    -0.57100
C699        C  0.11415018  0.77969244  0.24744893     0.76700
O700        O  0.14468550  0.67907057  0.22236754    -0.59400
O701        O  0.17648481  0.69710125  0.16903907    -0.57900
O702        O  0.04724912  0.74932130  0.17867887    -0.57900
O703        O  0.11427847  0.79445652  0.21897776    -0.57100
O704        O  0.15991644  0.52722325  0.15070117    -0.58300
C705        C  0.03832575  0.55718105  0.16138133     0.74400
O706        O  0.11894587  0.53605540  0.24793554    -0.59400
C707        C  0.18600518  0.55331273  0.15145849     0.74300
C708        C  0.11423851  0.61935411  0.22444711     0.76700
Cd709      Cd  0.11515482  0.55148734  0.19203780     1.37500
O710        O  0.06555649  0.57920611  0.15175840    -0.58300
O711        O  0.08324021  0.60154166  0.21886925    -0.57100
C712        C  0.11836630  0.99914073  0.24611754     0.76700
O713        O  0.14601866  0.60191257  0.22065604    -0.59400
O714        O  0.04720612  0.53279933  0.18329341    -0.57900
O715        O  0.17870482  0.58181339  0.16977271    -0.57900
O716        O  0.11585496  0.98470551  0.21775125    -0.57100
C717        C  0.11662339  0.97624883  0.27727696     0.86000
C718        C  0.14965924  0.98631160  0.29968846    -0.54200
C719        C  0.14764908  0.96927113  0.32952523     0.09000
C720        C  0.11164028  0.94172555  0.33398928     0.19900
C721        C  0.11695850  0.93210706  0.27500033    -0.54900
C722        C  0.11400225  0.91218032  0.30436181     0.09100
C723        C  0.07993584  0.98615623  0.29627218    -0.54500
C724        C  0.07654016  0.96903926  0.32607254     0.09600
H725        H  0.17068994  0.50894499  0.29352844     0.14200
H726        H  0.10949707  0.92781698  0.35832054    -0.00100
H727        H  0.11986045  0.91892310  0.25129804     0.14500
H728        H  0.05703836  0.50481878  0.28619782     0.14200
C729        C  0.11368288  0.80256530  0.27849672     0.86000
C730        C  0.07935052  0.79206592  0.29994739    -0.54200
C731        C  0.07822784  0.80990051  0.32948545     0.09000
C732        C  0.11338997  0.83804568  0.33476394     0.19900
C733        C  0.11260147  0.84677193  0.27555801    -0.54900
C734        C  0.11298433  0.86710029  0.30466055     0.09100
C735        C  0.14870747  0.79356959  0.29879535    -0.54500
C736        C  0.14934913  0.81139879  0.32824566     0.09600
H737        H  0.05701624  0.77211464  0.29205469     0.14200
H738        H  0.11348604  0.85258722  0.35880117    -0.00100
H739        H  0.11142151  0.85969432  0.25161303     0.14500
H740        H  0.17161294  0.77435818  0.29035640     0.14200
O741        O  0.40311990  0.45152965  0.35048961    -0.58300
C742        C  0.28224584  0.98018884  0.34791253     0.74400
O743        O  0.34889123  0.49429807  0.25284765    -0.59400
C744        C  0.42946665  0.97559274  0.34203348     0.74300
C745        C  0.36237871  0.91120043  0.27560662     0.76700
Cd746      Cd  0.35431195  0.97893858  0.30874457     1.37500
O747        O  0.30804280  0.50721908  0.34835615    -0.58300
O748        O  0.39161325  0.93011555  0.28430647    -0.57100
C749        C  0.35137542  0.53074816  0.25398808     0.76700
O750        O  0.32950286  0.92695109  0.27769135    -0.59400
O751        O  0.29290679  0.94822118  0.33570721    -0.57900
O752        O  0.41975840  0.00183711  0.32189260    -0.57900
O753        O  0.35398213  0.54583674  0.28211130    -0.57100
O754        O  0.42742454  0.78373897  0.31873129    -0.58300
C755        C  0.29299864  0.80892554  0.34293475     0.74400
O756        O  0.33463835  0.85048411  0.27225115    -0.59400
C757        C  0.43339514  0.80749219  0.34165067     0.74300
C758        C  0.35881680  0.74958065  0.25287001     0.76700
Cd759      Cd  0.36300563  0.80281021  0.30511447     1.37500
O760        O  0.31501136  0.77932878  0.34280641    -0.58300
O761        O  0.35947293  0.73555241  0.28159545    -0.57100
C762        C  0.36527013  0.87033571  0.27272523     0.76700
O763        O  0.35952199  0.78600981  0.25003086    -0.59400
O764        O  0.30479873  0.83802316  0.32688175    -0.57900
O765        O  0.40569003  0.82962026  0.34938434    -0.57900
O766        O  0.39669704  0.85412042  0.28023849    -0.57100
C767        C  0.35281809  0.55322241  0.22261830     0.86000
C768        C  0.38890533  0.54300708  0.20293174    -0.54200
C769        C  0.39207314  0.56093399  0.17340492     0.09000
C770        C  0.35722955  0.58876431  0.16629750     0.19900
C771        C  0.35332352  0.59722949  0.22538930    -0.54900
C772        C  0.35598335  0.61745671  0.19626139     0.09100
C773        C  0.31912353  0.54413130  0.20057753    -0.54500
C774        C  0.32075946  0.56198856  0.17099066     0.09600
H775        H  0.41078277  0.52318889  0.21198776     0.14200
H776        H  0.35918234  0.60325728  0.14216464    -0.00100
H777        H  0.35137239  0.61012124  0.24925092     0.14500
H778        H  0.29668654  0.52334195  0.20715089     0.14200
C779        C  0.35818176  0.72623748  0.22236810     0.86000
C780        C  0.32335973  0.73598827  0.20183855    -0.54200
C781        C  0.32282378  0.71831355  0.17238752     0.09000
C782        C  0.35846197  0.69098047  0.16619942     0.19900
C783        C  0.35827719  0.68221536  0.22546525    -0.54900
C784        C  0.35781218  0.66211514  0.19628092     0.09100
C785        C  0.39311036  0.73588983  0.20128574    -0.54500
C786        C  0.39442170  0.71810985  0.17187960     0.09600
H787        H  0.30170717  0.75714108  0.20928108     0.14200
H788        H  0.35857466  0.67665833  0.14208570    -0.00100
H789        H  0.35878731  0.66934168  0.24944218     0.14500
H790        H  0.41579097  0.75533477  0.20939108     0.14200
C791        C  0.20048949  0.53096210  0.39391064     0.86000
C792        C  0.17093543  0.52197171  0.36712142    -0.54200
C793        C  0.17409224  0.98406949  0.35517926     0.09000
C794        C  0.20762792  0.96049579  0.36994136     0.19900
C795        C  0.19429742  0.49828518  0.41890173    -0.54900
C796        C  0.19698738  0.96176582  0.40667338     0.09100
C797        C  0.23936468  0.52312309  0.37876271    -0.54500
C798        C  0.24473678  0.98683455  0.36578045     0.09600
H799        H  0.14938835  0.54272322  0.35912057     0.14200
H800        H  0.21061815  0.93069097  0.35986404    -0.00100
H801        H  0.18691285  0.50367494  0.44431867     0.14500
H802        H  0.26173328  0.54531309  0.37822614     0.14200
C803        C  0.46933736  0.97657325  0.35747223     0.86000
C804        C  0.00447974  0.97297393  0.33292152    -0.54200
C805        C  0.04066028  0.97665472  0.34618017     0.09000
C806        C  0.03928676  0.98739510  0.38289294     0.19900
C807        C  0.47881790  0.94713917  0.38478025    -0.54900
C808        C  0.01705392  0.95233588  0.39748511     0.09100
C809        C  0.47392449  0.51549688  0.37480781    -0.54500
C810        C  0.00962031  0.52072900  0.38520349     0.09600
H811        H  0.49957685  0.96559610  0.30779156     0.14200
H812        H  0.06810921  0.99194828  0.39375143    -0.00100
H813        H  0.45906528  0.92447215  0.39273203     0.14500
H814        H  0.45043781  0.53648181  0.37535756     0.14200
C815        C  0.47127394  0.80614140  0.35904357     0.86000
C816        C  0.47924030  0.83354833  0.38779476    -0.54200
C817        C  0.01737789  0.82713643  0.40119854     0.09000
C818        C  0.04023212  0.79242791  0.38668166     0.19900
C819        C  0.00708369  0.80892841  0.33628200    -0.54900
C820        C  0.04265578  0.80430048  0.35008878     0.09100
C821        C  0.47593841  0.76565309  0.37271406    -0.54500
C822        C  0.01179019  0.75623477  0.38855042     0.09600
H823        H  0.45931187  0.85595619  0.39576696     0.14200
H824        H  0.06872550  0.78752226  0.39804872    -0.00100
H825        H  0.50205677  0.82107059  0.31061784     0.14500
H826        H  0.45283395  0.74427424  0.37164594     0.14200
C827        C  0.27636305  0.64389195  0.02240347     0.86000
C828        C  0.26608922  0.67763889  0.04412630    -0.54200
C829        C  0.28230386  0.67658120  0.07413701     0.09000
C830        C  0.30944021  0.64113186  0.07943171     0.19900
C831        C  0.32025299  0.64388501  0.02034992    -0.54900
C832        C  0.33932778  0.64218058  0.04989899     0.09100
C833        C  0.26578728  0.60809182  0.04216780    -0.54500
C834        C  0.28204048  0.60648194  0.07224546     0.09600
H835        H  0.24634131  0.70045139  0.03654705     0.14200
H836        H  0.32271947  0.63997055  0.10383539    -0.00100
H837        H  0.33038678  0.64182227  0.49705196     0.14500
H838        H  0.24582293  0.58619215  0.03342478     0.14200
C839        C  0.44839363  0.63895205  0.02452319     0.86000
C840        C  0.45690294  0.60380015  0.04612495    -0.54200
C841        C  0.43896411  0.60442556  0.07580041     0.09000
C842        C  0.41226240  0.64084991  0.08064847     0.19900
C843        C  0.40472630  0.64001243  0.02166238    -0.54900
C844        C  0.38401447  0.64111229  0.05057006     0.09100
C845        C  0.45883338  0.67425145  0.04505609    -0.54500
C846        C  0.44080301  0.67562265  0.07463961     0.09600
H847        H  0.47807998  0.58179275  0.03956993     0.14200
H848        H  0.39782019  0.64161953  0.10485852    -0.00100
H849        H  0.38896775  0.63686456  0.49773628     0.14500
H850        H  0.48103987  0.69497610  0.03780826     0.14200
O851        O  0.21055841  0.60105561  0.39068184    -0.58300
C852        C  0.20819482  0.72458061  0.40666630     0.74400
O853        O  0.14738423  0.64783425  0.46700646    -0.59400
C854        C  0.20118257  0.57155998  0.40787070     0.74300
C855        C  0.25148512  0.64547042  0.49196775     0.76700
Cd856      Cd  0.20491724  0.64834479  0.43616216     1.37500
O857        O  0.23311587  0.69774285  0.40275674    -0.58300
O858        O  0.26744540  0.64433986  0.46393696    -0.57100
C859        C  0.12940080  0.64366882  0.44043701     0.76700
O860        O  0.21517935  0.64886539  0.49317538    -0.59400
O861        O  0.18045514  0.71705382  0.42585192    -0.57900
O862        O  0.19616086  0.57752777  0.43799108    -0.57900
O863        O  0.14737516  0.64380438  0.41347128    -0.57100
O864        O  0.48856394  0.58907271  0.39803397    -0.58300
C865        C  0.01540794  0.71642061  0.40372028     0.74400
O866        O  0.50337192  0.64089234  0.49234115    -0.59400
C867        C  0.01391260  0.55958079  0.40127609     0.74300
C868        C  0.08920452  0.63954297  0.43963453     0.76700
Cd869      Cd  0.01396377  0.63683802  0.43315222     1.37500
O870        O  0.49153154  0.69077356  0.39450052    -0.58300
O871        O  0.07323716  0.64059704  0.41205234    -0.57100
C872        C  0.46701621  0.64034689  0.49235777     0.76700
O873        O  0.06919308  0.63516370  0.46549722    -0.59400
O874        O  0.03632761  0.70878703  0.42785125    -0.57900
O875        O  0.03742322  0.56639212  0.42374302    -0.57900
O876        O  0.45089520  0.64012055  0.46473517    -0.57100
C877        C  0.25355255  0.80759554  0.35907674     0.86000
C878        C  0.22049929  0.81053140  0.33477724    -0.54200
C879        C  0.18437675  0.80653738  0.34846768     0.09000
C880        C  0.18496400  0.79749375  0.38532347     0.19900
C881        C  0.24319901  0.83790621  0.38534089    -0.54900
C882        C  0.20668544  0.83284972  0.39848123     0.09100
C883        C  0.24823863  0.76878121  0.37591056    -0.54500
C884        C  0.21338740  0.76250303  0.38969543     0.09600
H885        H  0.22527256  0.81684859  0.30904045     0.14200
H886        H  0.15599764  0.79298224  0.39654594    -0.00100
H887        H  0.26245740  0.86111036  0.39266095     0.14500
H888        H  0.27119370  0.74739891  0.37750412     0.14200
C889        C  0.26814054  0.77814495  0.60745675     0.86000
C890        C  0.29513338  0.77056307  0.63613841    -0.54200
C891        C  0.29272780  0.73329575  0.64836599     0.09000
C892        C  0.26080726  0.70845549  0.63238234     0.19900
C893        C  0.27762334  0.74601389  0.58352876    -0.54900
C894        C  0.27425560  0.70945637  0.59618229     0.09100
C895        C  0.22809197  0.76948387  0.61976967    -0.54500
C896        C  0.22292238  0.73424550  0.63378363     0.09600
H897        H  0.31609791  0.79167351  0.64445319     0.14200
H898        H  0.25763574  0.67877795  0.64287041    -0.00100
H899        H  0.28671619  0.75152723  0.55844358     0.14500
H900        H  0.20521953  0.79105604  0.61822867     0.14200
C901        C  0.99671941  0.55465091  0.64392384     0.86000
C902        C  0.48940857  0.58326167  0.61464166    -0.54200
C903        C  0.45324298  0.57868850  0.60142317     0.09000
C904        C  0.43034551  0.54421320  0.61637907     0.19900
C905        C  0.46381564  0.56026396  0.66667887    -0.54900
C906        C  0.42800384  0.55592989  0.65290975     0.09100
C907        C  0.49273068  0.51491693  0.62865268    -0.54500
C908        C  0.45850593  0.50796564  0.61449903     0.09600
H909        H  0.00715540  0.60579071  0.60768896     0.14200
H910        H  0.40181508  0.53946472  0.60505585    -0.00100
H911        H  0.46760496  0.56803633  0.69208431     0.14500
H912        H  0.01629537  0.99399330  0.62773340     0.14200
C913        C  0.99793490  0.72453725  0.63925138     0.86000
C914        C  0.46414318  0.72005334  0.66463256    -0.54200
C915        C  0.42825975  0.72487178  0.65114326     0.09000
C916        C  0.43020360  0.73727574  0.61478088     0.19900
C917        C  0.48872130  0.69735911  0.61259818    -0.54900
C918        C  0.45243756  0.70273509  0.59964785     0.09100
C919        C  0.49318524  0.76557989  0.62643776    -0.54500
C920        C  0.45874126  0.77320844  0.61280325     0.09600
H921        H  0.46814946  0.71186308  0.69001235     0.14200
H922        H  0.40155162  0.74255553  0.60380087    -0.00100
H923        H  0.00851022  0.67350982  0.60344576     0.14500
H924        H  0.01601204  0.78569858  0.62434512     0.14200
C925        C  0.02395277  0.89010718  0.97413374     0.86000
C926        C  0.01468701  0.85432478  0.95366553    -0.54200
C927        C  0.03262141  0.85354672  0.92396846     0.09000
C928        C  0.05975824  0.88928281  0.91782041     0.19900
C929        C  0.06757915  0.89068739  0.97678499    -0.54900
C930        C  0.08807419  0.88979590  0.94777127     0.09100
C931        C  0.01410257  0.92481666  0.95255790    -0.54500
C932        C  0.03182620  0.92477686  0.92283764     0.09600
H933        H  0.49289483  0.83434543  0.96314814     0.14200
H934        H  0.07409766  0.88886405  0.89356192    -0.00100
H935        H  0.08057837  0.89544516  0.50191019     0.14500
H936        H  0.49247196  0.94786542  0.96175088     0.14200
C937        C  0.19546384  0.88931544  0.97556168     0.86000
C938        C  0.20428980  0.92613789  0.95630254    -0.54200
C939        C  0.18810797  0.92772509  0.92635151     0.10600
C940        C  0.16230590  0.89177147  0.91878932     0.19900
C941        C  0.15174957  0.88724626  0.97768673    -0.54900
C942        C  0.13261033  0.88916301  0.94826797     0.09100
C943        C  0.20736168  0.85604975  0.95340874    -0.54500
C944        C  0.19080296  0.85703066  0.92360911     0.09600
H945        H  0.22326111  0.94877960  0.96529756     0.14200
H946        H  0.14908064  0.89291584  0.89435486    -0.00100
H947        H  0.13822273  0.88376801  0.50262178     0.14500
H948        H  0.22926071  0.83485061  0.95991438     0.14200
O949        O  0.25620961  0.93550637  0.60680094    -0.58300
C950        C  0.26823255  0.81765220  0.59259466     0.74400
O951        O  0.25328461  0.88974707  0.50651917    -0.59400
C952        C  0.26836636  0.96466550  0.59057498     0.74300
C953        C  0.34023353  0.89118441  0.55674492     0.76700
Cd954      Cd  0.26446012  0.89047320  0.56242369     1.37500
O955        O  0.25299367  0.84633952  0.60731221    -0.58300
O956        O  0.32248297  0.89042087  0.58368337    -0.57100
C957        C  0.21695377  0.88827856  0.50797559     0.76700
O958        O  0.32180337  0.89086504  0.53025277    -0.59400
O959        O  0.27978333  0.82302860  0.56356655    -0.57900
O960        O  0.27649888  0.95938326  0.56079488    -0.57900
O961        O  0.20097675  0.88741220  0.53611502    -0.57100
O962        O  0.47846617  0.94175909  0.60460317    -0.58300
C963        C  0.45459338  0.81289991  0.59754620     0.74400
O964        O  0.40136651  0.88936247  0.53228765    -0.59400
C965        C  0.45497501  0.96929492  0.59861431     0.74300
C966        C  0.00236318  0.89333811  0.50710390     0.76700
Cd967      Cd  0.45498445  0.89181063  0.56679271     1.37500
O968        O  0.47825304  0.84007909  0.60393832    -0.58300
O969        O  0.01822616  0.89212424  0.53483503    -0.57100
C970        C  0.38050872  0.89229049  0.55779851     0.76700
O971        O  0.46379370  0.89360277  0.50811714    -0.59400
O972        O  0.42965607  0.82146897  0.57664228    -0.57900
O973        O  0.43028395  0.96189704  0.57724180    -0.57900
O974        O  0.39561531  0.89572859  0.58559914    -0.57100
C975        C  0.26829144  0.00429082  0.60511488     0.86000
C976        C  0.26868840  0.53671586  0.58189248    -0.54200
C977        C  0.26756662  0.57321426  0.59472562     0.09000
C978        C  0.25858113  0.57397978  0.63188085     0.19900
C979        C  0.29469316  0.51283374  0.63249201    -0.54900
C980        C  0.29277177  0.54980293  0.64514211     0.09100
C981        C  0.22573101  0.51204498  0.62342472    -0.54500
C982        C  0.22140570  0.54758608  0.63680805     0.09600
H983        H  0.27516633  0.53107364  0.55632002     0.14200
H984        H  0.25626860  0.60358419  0.64242484    -0.00100
H985        H  0.31894983  0.99182253  0.64006484     0.14500
H986        H  0.20685872  0.98881398  0.61954433     0.14200
O987        O  0.06387147  0.69945906  0.64884680    -0.58300
C988        C  0.18460978  0.72861181  0.65070893     0.74400
O989        O  0.11870177  0.74440616  0.74569554    -0.59400
C990        C  0.03750724  0.72387805  0.65516444     0.74300
C991        C  0.10901719  0.66243642  0.72269212     0.76700
Cd992      Cd  0.11212502  0.72980554  0.68909173     1.37500
O993        O  0.16096998  0.75686210  0.65278084    -0.58300
O994        O  0.07811392  0.68019065  0.71635044    -0.57100
C995        C  0.11526176  0.78079502  0.74441546     0.76700
O996        O  0.14086637  0.67981276  0.71903311    -0.59400
O997        O  0.17369678  0.69755894  0.66448145    -0.57900
O998        O  0.04665736  0.75060988  0.67482168    -0.57900
O999        O  0.11151794  0.79576818  0.71621391    -0.57100
O1000       O  0.15903476  0.52634106  0.65608333    -0.58300
C1001       C  0.03613647  0.55640710  0.66003854     0.74400
O1002       O  0.11563964  0.53779020  0.74948890    -0.59400
C1003       C  0.18368214  0.55376676  0.65453927     0.74300
C1004       C  0.10871327  0.62143003  0.72424769     0.76700
Cd1005     Cd  0.11149040  0.55284482  0.69320322     1.37500
O1006       O  0.06299471  0.57947567  0.65155911    -0.58300
O1007       O  0.07769568  0.60369345  0.71845060    -0.57100
C1008       C  0.11698206  0.99897348  0.74487983     0.76700
O1009       O  0.14034142  0.60335740  0.72232765    -0.59400
O1010       O  0.04488402  0.53172969  0.68178940    -0.57900
O1011       O  0.17411923  0.58444599  0.66932322    -0.57900
O1012       O  0.11436853  0.98410077  0.71667756    -0.57100
C1013       C  0.11565804  0.97639334  0.77608889     0.86000
C1014       C  0.14863334  0.98707465  0.79835917    -0.54200
C1015       C  0.14729383  0.96980088  0.82811116     0.09000
C1016       C  0.11175968  0.94147273  0.83262298     0.19900
C1017       C  0.11688977  0.93238034  0.77359851    -0.54900
C1018       C  0.11419871  0.91224095  0.80279198     0.09100
C1019       C  0.07889365  0.98547087  0.79523942    -0.54500
C1020       C  0.07606426  0.96805762  0.82497926     0.09600
H1021       H  0.16988052  0.50995527  0.79401526     0.14200
H1022       H  0.11001250  0.92731338  0.85687816    -0.00100
H1023       H  0.12005962  0.91941088  0.74982829     0.14500
H1024       H  0.05608871  0.50653565  0.78915175     0.14200
C1025       C  0.11498736  0.80317974  0.77582459     0.86000
C1026       C  0.08126348  0.79134803  0.79754072    -0.54200
C1027       C  0.07975164  0.80904463  0.82714616     0.09000
C1028       C  0.11423935  0.83799148  0.83244339     0.19900
C1029       C  0.11246603  0.84732386  0.77333681    -0.54900
C1030       C  0.11305910  0.86727292  0.80262339     0.09100
C1031       C  0.15064394  0.79517157  0.79580068    -0.54500
C1032       C  0.15084068  0.81249774  0.82555358     0.09600
H1033       H  0.05922756  0.77111964  0.78954296     0.14200
H1034       H  0.11407949  0.85230710  0.85658697    -0.00100
H1035       H  0.11048043  0.86050514  0.74950943     0.14500
H1036       H  0.17401840  0.77673259  0.78709469     0.14200
O1037       O  0.40378974  0.45032549  0.84816505    -0.58300
C1038       C  0.28290673  0.98038567  0.84722865     0.74400
O1039       O  0.34780676  0.49479375  0.75205883    -0.59400
C1040       C  0.43082891  0.97537936  0.84231529     0.74300
C1041       C  0.36375225  0.91145107  0.77663548     0.76700
Cd1042     Cd  0.35552466  0.97965088  0.80877550     1.37500
O1043       O  0.30789028  0.50654599  0.84813682    -0.58300
O1044       O  0.39310056  0.93128695  0.78349647    -0.57100
C1045       C  0.35080533  0.53119605  0.75335931     0.76700
O1046       O  0.33070814  0.92662137  0.77963959    -0.59400
O1047       O  0.29275966  0.94912835  0.83338026    -0.57900
O1048       O  0.42177493  0.00110882  0.82147794    -0.57900
O1049       O  0.35363412  0.54602972  0.78156387    -0.57100
O1050       O  0.42847172  0.78014476  0.82052387    -0.58300
C1051       C  0.29436498  0.80875187  0.84333842     0.74400
O1052       O  0.33656748  0.85042010  0.77408531    -0.59400
C1053       C  0.43593182  0.80527933  0.84208062     0.74300
C1054       C  0.35848107  0.75024077  0.75313641     0.76700
Cd1055     Cd  0.36471117  0.80231836  0.80627944     1.37500
O1056       O  0.31617282  0.77900624  0.84331955    -0.58300
O1057       O  0.35957582  0.73580810  0.78170153    -0.57100
C1058       C  0.36701177  0.87052372  0.77475066     0.76700
O1059       O  0.35999414  0.78670168  0.75068096    -0.59400
O1060       O  0.30702673  0.83817996  0.82826699    -0.57900
O1061       O  0.40932627  0.82911123  0.84892786    -0.57900
O1062       O  0.39845746  0.85462287  0.78270140    -0.57100
C1063       C  0.35242779  0.55392925  0.72209874     0.86000
C1064       C  0.38856842  0.54390955  0.70236796    -0.54200
C1065       C  0.39170423  0.56194705  0.67287350     0.09000
C1066       C  0.35673150  0.58976706  0.66589723     0.19900
C1067       C  0.35280955  0.59790649  0.72501932    -0.54900
C1068       C  0.35531716  0.61833444  0.69600159     0.09100
C1069       C  0.31877201  0.54491410  0.70001288    -0.54500
C1070       C  0.32030943  0.56293495  0.67051375     0.09600
H1071       H  0.41042193  0.52400976  0.71132961     0.14200
H1072       H  0.35855382  0.60435981  0.64183598    -0.00100
H1073       H  0.35069455  0.61076815  0.74904685     0.14500
H1074       H  0.29632251  0.52412107  0.70654730     0.14200
C1075       C  0.35698876  0.72713091  0.72247646     0.86000
C1076       C  0.32185250  0.73688799  0.70222656    -0.54200
C1077       C  0.32098516  0.71911065  0.67275700     0.09000
C1078       C  0.35667656  0.69199744  0.66622045     0.19900
C1079       C  0.35723299  0.68306805  0.72539295    -0.54900
C1080       C  0.35659189  0.66302839  0.69620814     0.09100
C1081       C  0.39157380  0.73694205  0.70108712    -0.54500
C1082       C  0.39250691  0.71930680  0.67165385     0.09600
H1083       H  0.30036166  0.75812607  0.70980748     0.14200
H1084       H  0.35659853  0.67774195  0.64205902    -0.00100
H1085       H  0.35815179  0.66995086  0.74945647     0.14500
H1086       H  0.41433308  0.75641395  0.70900248     0.14200
C1087       C  0.20116357  0.53079788  0.89457914     0.86000
C1088       C  0.17208647  0.52226706  0.86741459    -0.54200
C1089       C  0.17424024  0.98463421  0.85351781     0.09000
C1090       C  0.20760939  0.96083897  0.86838761     0.19900
C1091       C  0.19393273  0.49846463  0.91962555    -0.54900
C1092       C  0.19657045  0.96190216  0.90507132     0.09100
C1093       C  0.24025625  0.52216963  0.88008706    -0.54500
C1094       C  0.24499509  0.98704328  0.86458972     0.09600
H1095       H  0.15096210  0.54332718  0.85916655     0.14200
H1096       H  0.21053934  0.93106897  0.85823241    -0.00100
H1097       H  0.18629213  0.50412770  0.94494958     0.14500
H1098       H  0.26293825  0.54402399  0.87977141     0.14200
C1099       C  0.47071243  0.97610788  0.85790119     0.86000
C1100       C  0.00399872  0.97084795  0.83207644    -0.54200
C1101       C  0.04019330  0.97465635  0.84526752     0.09000
C1102       C  0.03892834  0.98559987  0.88192940     0.19900
C1103       C  0.48011189  0.94742615  0.88589408    -0.54900
C1104       C  0.01645630  0.95091321  0.89679176     0.09100
C1105       C  0.47480846  0.51496732  0.87304096    -0.54500
C1106       C  0.01010143  0.52246061  0.88750180     0.09600
H1107       H  0.50101668  0.96375902  0.80848236     0.14200
H1108       H  0.06778954  0.99006528  0.89273429    -0.00100
H1109       H  0.46041068  0.92482676  0.89410339     0.14500
H1110       H  0.45167822  0.53635493  0.87355235     0.14200
C1111       C  0.47423203  0.80415527  0.85895855     0.86000
C1112       C  0.48243037  0.83265886  0.88686640    -0.54200
C1113       C  0.01771056  0.82703928  0.89823732     0.09000
C1114       C  0.04027846  0.79213393  0.88387634     0.19900
C1115       C  0.00851011  0.80919274  0.83294568    -0.54900
C1116       C  0.04367986  0.80385865  0.84725779     0.09100
C1117       C  0.47906448  0.76424512  0.87366507    -0.54500
C1118       C  0.01114924  0.75662525  0.88557301     0.09600
H1119       H  0.46240151  0.85517388  0.89445974     0.14200
H1120       H  0.06840996  0.78670906  0.89570790    -0.00100
H1121       H  0.50449320  0.81725248  0.80994844     0.14500
H1122       H  0.45597851  0.74281580  0.87313637     0.14200
C1123       C  0.27320771  0.64308920  0.52313809     0.86000
C1124       C  0.26456306  0.67765985  0.54437968    -0.54200
C1125       C  0.28109516  0.67637919  0.57425360     0.09000
C1126       C  0.30662291  0.63992811  0.57992959     0.19900
C1127       C  0.31703606  0.64109911  0.52085067    -0.54900
C1128       C  0.33632585  0.63950815  0.55027339     0.09100
C1129       C  0.26116618  0.60823529  0.54332383    -0.54500
C1130       C  0.27756232  0.60638375  0.57327438     0.09600
H1131       H  0.24571559  0.70116541  0.53662913     0.14200
H1132       H  0.32001483  0.63871952  0.60429248    -0.00100
H1133       H  0.33376442  0.64550509  0.99666439     0.14500
H1134       H  0.24020832  0.58710168  0.53490740     0.14200
C1135       C  0.44513055  0.64013131  0.52411208     0.86000
C1136       C  0.45595259  0.60568786  0.54573083    -0.54200
C1137       C  0.43817929  0.60523285  0.57544486     0.09000
C1138       C  0.40968841  0.64027213  0.58051415     0.19900
C1139       C  0.40148449  0.63845421  0.52158435    -0.54900
C1140       C  0.38105041  0.63898231  0.55065814     0.09100
C1141       C  0.45366950  0.67615370  0.54431523    -0.54500
C1142       C  0.43635092  0.67651216  0.57416941     0.09600
H1143       H  0.47801127  0.58468622  0.53891933     0.14200
H1144       H  0.39554103  0.64053707  0.60483453    -0.00100
H1145       H  0.39236486  0.63938447  0.99775850     0.14500
H1146       H  0.47474234  0.69794461  0.53682464     0.14200
O1147       O  0.21208472  0.60055386  0.89081144    -0.58300
C1148       C  0.20791906  0.72377058  0.90390897     0.74400
O1149       O  0.14909049  0.65050493  0.96755520    -0.59400
C1150       C  0.20187749  0.57149824  0.90814424     0.74300
C1151       C  0.25451200  0.64610171  0.99111480     0.76700
Cd1152     Cd  0.20638905  0.64867554  0.93555496     1.37500
O1153       O  0.23057289  0.69560872  0.89733811    -0.58300
O1154       O  0.27018015  0.64571957  0.96292907    -0.57100
C1155       C  0.13036353  0.64679136  0.94134578     0.76700
O1156       O  0.21818667  0.64875154  0.99245480    -0.59400
O1157       O  0.18372774  0.71807459  0.92664989    -0.57900
O1158       O  0.19580572  0.57804354  0.93803925    -0.57900
O1159       O  0.14786339  0.64584124  0.91420830    -0.57100
O1160       O  0.49181409  0.58886850  0.89550339    -0.58300
C1161       C  0.01406527  0.71764522  0.90220937     0.74400
O1162       O  0.50665413  0.63652383  0.99250213    -0.59400
C1163       C  0.01468454  0.56163361  0.90309784     0.74300
C1164       C  0.08998263  0.64349109  0.94102448     0.76700
Cd1165     Cd  0.01461685  0.63945794  0.93422274     1.37500
O1166       O  0.49493043  0.68969576  0.89506402    -0.58300
O1167       O  0.07409824  0.63985889  0.91355778    -0.57100
C1168       C  0.47032613  0.63811346  0.99268430     0.76700
O1169       O  0.06974365  0.64412521  0.96703160    -0.59400
O1170       O  0.03907496  0.70950241  0.92313019    -0.57900
O1171       O  0.04015812  0.56966571  0.92365923    -0.57900
O1172       O  0.45417313  0.63932663  0.96507746    -0.57100
C1173       C  0.25432749  0.80734818  0.85829772     0.86000
C1174       C  0.22193885  0.81181170  0.83344869    -0.54200
C1175       C  0.18542914  0.80758764  0.84637206     0.09000
C1176       C  0.18503645  0.79731099  0.88311616     0.19900
C1177       C  0.24380161  0.83669250  0.88524358    -0.54900
C1178       C  0.20692254  0.83195503  0.89759834     0.09100
C1179       C  0.24799710  0.76790288  0.87368731    -0.54500
C1180       C  0.21291458  0.76167758  0.88689632     0.09600
H1181       H  0.22743602  0.81886047  0.80794061     0.14200
H1182       H  0.15578244  0.79276759  0.89376187    -0.00100
H1183       H  0.26320879  0.85934761  0.89340461     0.14500
H1184       H  0.27060864  0.74612758  0.87517398     0.14200
C1185       C  0.76866209  0.27701384  0.10718205     0.86000
C1186       C  0.79692013  0.26881986  0.13491589    -0.54200
C1187       C  0.79457121  0.23143659  0.14700232     0.09000
C1188       C  0.76168163  0.20717842  0.13201975     0.19900
C1189       C  0.77656993  0.24497372  0.08284481    -0.54900
C1190       C  0.77372182  0.20832050  0.09539829     0.09100
C1191       C  0.72911505  0.26869315  0.12081391    -0.54500
C1192       C  0.72416061  0.23348702  0.13496428     0.09600
H1193       H  0.81827579  0.28970977  0.14291031     0.14200
H1194       H  0.75871263  0.17746319  0.14247975    -0.00100
H1195       H  0.78501892  0.25070862  0.05764367     0.14500
H1196       H  0.70649551  0.29058263  0.12021142     0.14200
C1197       C  0.49777969  0.05506386  0.14337698     0.86000
C1198       C  0.98957670  0.08228712  0.11546004    -0.54200
C1199       C  0.95371457  0.07689594  0.10189759     0.09000
C1200       C  0.93160682  0.04173648  0.11636334     0.19900
C1201       C  0.96412905  0.05803737  0.16706531    -0.54900
C1202       C  0.92867269  0.05304557  0.15291623     0.09100
C1203       C  0.99451307  0.01372231  0.12890540    -0.54500
C1204       C  0.96061286  0.00623710  0.11433428     0.09600
H1205       H  0.50939196  0.10628471  0.10753787     0.14200
H1206       H  0.90330662  0.03643837  0.10480555    -0.00100
H1207       H  0.96741639  0.06587931  0.19251556     0.14500
H1208       H  0.51696760  0.49391287  0.13008618     0.14200
C1209       C  0.49936487  0.22548437  0.14107390     0.86000
C1210       C  0.96592325  0.21900165  0.16484278    -0.54200
C1211       C  0.93006412  0.22328060  0.15110998     0.09000
C1212       C  0.93231749  0.23544344  0.11463872     0.19900
C1213       C  0.99137343  0.19634459  0.11296762    -0.54900
C1214       C  0.95523168  0.20107851  0.09970388     0.09100
C1215       C  0.99480859  0.26468727  0.12667137    -0.54500
C1216       C  0.96037914  0.27185057  0.11294328     0.09600
H1217       H  0.96981640  0.21109227  0.19027556     0.14200
H1218       H  0.90373600  0.24031859  0.10341674    -0.00100
H1219       H  0.51096033  0.17647096  0.10349367     0.14500
H1220       H  0.51631906  0.28799353  0.12970092     0.14200
C1221       C  0.52309114  0.39034903  0.47617060     0.86000
C1222       C  0.51324685  0.35502220  0.45536346    -0.54200
C1223       C  0.53113467  0.35440255  0.42565651     0.09000
C1224       C  0.55859639  0.38983768  0.41967116     0.19900
C1225       C  0.56676563  0.39024333  0.47858769    -0.54900
C1226       C  0.58708503  0.38953697  0.44944115     0.09100
C1227       C  0.51363356  0.42551966  0.45495130    -0.54500
C1228       C  0.53115206  0.42560200  0.42512732     0.09600
H1229       H  0.99215019  0.33288446  0.46114102     0.14200
H1230       H  0.57276669  0.38956214  0.39534260    -0.00100
H1231       H  0.57995802  0.39484697  0.00172539     0.14500
H1232       H  0.99260014  0.44616538  0.45942974     0.14200
C1233       C  0.69450934  0.38743941  0.47643910     0.86000
C1234       C  0.70369917  0.42428160  0.45740479    -0.54200
C1235       C  0.68747576  0.42631510  0.42756221     0.10600
C1236       C  0.66124324  0.39072120  0.41988384     0.19900
C1237       C  0.65088705  0.38587344  0.47880844    -0.54900
C1238       C  0.63160631  0.38824462  0.44953678     0.09100
C1239       C  0.70599260  0.35420728  0.45423345    -0.54500
C1240       C  0.68953520  0.35567966  0.42448819     0.09600
H1241       H  0.72297469  0.44662527  0.46647529     0.14200
H1242       H  0.64797306  0.39225419  0.39549705    -0.00100
H1243       H  0.63762612  0.38164258  0.00175442     0.14500
H1244       H  0.72770486  0.33274496  0.46061946     0.14200
O1245       O  0.75418541  0.43321428  0.10642433    -0.58300
C1246       C  0.76877452  0.31655540  0.09216633     0.74400
O1247       O  0.75281283  0.38777270  0.00534068    -0.59400
C1248       C  0.76698610  0.46261700  0.09090560     0.74300
C1249       C  0.84100527  0.39058316  0.05626410     0.76700
Cd1250     Cd  0.76458272  0.38907877  0.06137220     1.37500
O1251       O  0.75079724  0.34467135  0.10542867    -0.58300
O1252       O  0.82265021  0.38953492  0.08290460    -0.57100
C1253       C  0.71648525  0.38632419  0.00696795     0.76700
O1254       O  0.82298042  0.39087843  0.02953383    -0.59400
O1255       O  0.78311717  0.32231013  0.06407416    -0.57900
O1256       O  0.77598604  0.45785233  0.06122322    -0.57900
O1257       O  0.70078510  0.38536172  0.03516364    -0.57100
O1258       O  0.98304427  0.44328469  0.10347830    -0.58300
C1259       C  0.95586828  0.31178516  0.09828744     0.74400
O1260       O  0.90297958  0.39360304  0.03291162    -0.59400
C1261       C  0.95667553  0.46886904  0.10089984     0.74300
C1262       C  0.50165369  0.39117813  0.00779733     0.76700
Cd1263     Cd  0.95647951  0.39125166  0.06840634     1.37500
O1264       O  0.97485831  0.34062504  0.10909399    -0.58300
O1265       O  0.51787839  0.39239043  0.03535394    -0.57100
C1266       C  0.88143920  0.39113606  0.05804872     0.76700
O1267       O  0.96576824  0.39411859  0.00965686    -0.59400
O1268       O  0.93640117  0.31883276  0.07319984    -0.57900
O1269       O  0.92888608  0.45924971  0.08318886    -0.57900
O1270       O  0.89600788  0.38922877  0.08616905    -0.57100
C1271       C  0.76714367  0.50200743  0.10598136     0.86000
C1272       C  0.77374909  0.03519717  0.07912875    -0.54200
C1273       C  0.77141985  0.07144429  0.09237441     0.09000
C1274       C  0.76053025  0.07137133  0.12923398     0.19900
C1275       C  0.79632397  0.01014003  0.13060806    -0.54900
C1276       C  0.79395341  0.04697169  0.14350616     0.09100
C1277       C  0.72799136  0.00980637  0.11826967    -0.54500
C1278       C  0.72319795  0.04485885  0.13240664     0.09600
H1279       H  0.78149493  0.03029309  0.05370191     0.14200
H1280       H  0.75759335  0.10074819  0.14012094    -0.00100
H1281       H  0.81717803  0.48859699  0.14140471     0.14500
H1282       H  0.70521763  0.48766631  0.11991010     0.14200
O1283       O  0.57014333  0.23143693  0.14121624    -0.58300
C1284       C  0.68636794  0.22854157  0.15308087     0.74400
O1285       O  0.61839866  0.24783490  0.24722192    -0.59400
C1286       C  0.53908244  0.22393416  0.15676163     0.74300
C1287       C  0.61289307  0.16087596  0.21863975     0.76700
Cd1288     Cd  0.61353208  0.23215926  0.19131768     1.37500
O1289       O  0.66099940  0.25531917  0.15190018    -0.58300
O1290       O  0.58161995  0.17853116  0.21371079    -0.57100
C1291       C  0.61439389  0.28407191  0.24572607     0.76700
O1292       O  0.64442327  0.17903521  0.21572650    -0.59400
O1293       O  0.67778869  0.20005502  0.17131936    -0.57900
O1294       O  0.54271735  0.21997334  0.18715549    -0.57900
O1295       O  0.61103464  0.29886805  0.21745999    -0.57100
O1296       O  0.65940550  0.02435901  0.14942011    -0.58300
C1297       C  0.53761897  0.05565830  0.15885662     0.74400
O1298       O  0.61847808  0.03685432  0.24733378    -0.59400
C1299       C  0.68556162  0.05039585  0.15034103     0.74300
C1300       C  0.61292963  0.11986907  0.21885585     0.76700
Cd1301     Cd  0.61399073  0.04987518  0.19024073     1.37500
O1302       O  0.56460467  0.07856888  0.15037443    -0.58300
O1303       O  0.58164640  0.10200528  0.21441041    -0.57100
C1304       C  0.61610539  0.50177481  0.24765818     0.76700
O1305       O  0.64450026  0.10193384  0.21576730    -0.59400
O1306       O  0.54670700  0.02995588  0.17965800    -0.57900
O1307       O  0.67799509  0.07906255  0.16833831    -0.57900
O1308       O  0.61557967  0.48647144  0.21951723    -0.57100
C1309       C  0.61446394  0.47924351  0.27887975     0.86000
C1310       C  0.64791169  0.48879936  0.30090517    -0.54200
C1311       C  0.64653778  0.47087585  0.33039536     0.09000
C1312       C  0.61048890  0.44347061  0.33506085     0.19900
C1313       C  0.61466945  0.43527967  0.27600384    -0.54900
C1314       C  0.61221302  0.41474000  0.30496762     0.09100
C1315       C  0.57816859  0.48890702  0.29847558    -0.54500
C1316       C  0.57528336  0.47101214  0.32803202     0.09600
H1317       H  0.67075764  0.00916484  0.29342253     0.14200
H1318       H  0.60881633  0.42895881  0.35918152    -0.00100
H1319       H  0.61731125  0.42256701  0.25199972     0.14500
H1320       H  0.55686039  0.00746382  0.28795170     0.14200
C1321       C  0.61369818  0.30629190  0.27701771     0.86000
C1322       C  0.58009384  0.29408895  0.29868692    -0.54200
C1323       C  0.57877187  0.31134996  0.32847461     0.09000
C1324       C  0.61319174  0.34016673  0.33396400     0.19900
C1325       C  0.61108278  0.35034251  0.27493463    -0.54900
C1326       C  0.61162454  0.36985941  0.30440501     0.09100
C1327       C  0.64935568  0.29799769  0.29670691    -0.54500
C1328       C  0.64967547  0.31464887  0.32661345     0.09600
H1329       H  0.55810638  0.27387459  0.29058013     0.14200
H1330       H  0.61310855  0.35404474  0.35826649    -0.00100
H1331       H  0.60894829  0.36378983  0.25111686     0.14500
H1332       H  0.67255637  0.27946631  0.28777882     0.14200
O1333       O  0.90397613  0.95337096  0.35085782    -0.58300
C1334       C  0.78208604  0.47926736  0.34832682     0.74400
O1335       O  0.84971397  0.99244736  0.25206228    -0.59400
C1336       C  0.92986835  0.47344582  0.34173956     0.74300
C1337       C  0.86371220  0.40938395  0.27605055     0.76700
Cd1338     Cd  0.85452551  0.47724123  0.30926718     1.37500
O1339       O  0.80720067  0.00783834  0.34676907    -0.58300
O1340       O  0.89269921  0.42813541  0.28549242    -0.57100
C1341       C  0.85094374  0.02902085  0.25282946     0.76700
O1342       O  0.83091853  0.42543697  0.27718358    -0.59400
O1343       O  0.79225330  0.44739593  0.33560213    -0.57900
O1344       O  0.92018644  0.49957591  0.32147025    -0.57900
O1345       O  0.85239775  0.04452671  0.28085482    -0.57100
O1346       O  0.92801437  0.27931437  0.31754131    -0.58300
C1347       C  0.79295116  0.30734151  0.34347026     0.74400
O1348       O  0.83562755  0.34877699  0.27258796    -0.59400
C1349       C  0.93513256  0.30362162  0.33983426     0.74300
C1350       C  0.85727960  0.24757247  0.25247995     0.76700
Cd1351     Cd  0.86293495  0.30013509  0.30525833     1.37500
O1352       O  0.81481456  0.27761720  0.34373296    -0.58300
O1353       O  0.85912463  0.23319340  0.28103542    -0.57100
C1354       C  0.86636312  0.36840729  0.27350240     0.76700
O1355       O  0.85671324  0.28405266  0.25004769    -0.59400
O1356       O  0.80529194  0.33623650  0.32748194    -0.57900
O1357       O  0.90782861  0.32608882  0.34792914    -0.57900
O1358       O  0.89745818  0.35189007  0.28149009    -0.57100
C1359       C  0.85250227  0.05137767  0.22129512     0.86000
C1360       C  0.88873405  0.04114414  0.20188339    -0.54200
C1361       C  0.89217142  0.05901083  0.17237311     0.09000
C1362       C  0.85749921  0.08700287  0.16499071     0.19900
C1363       C  0.85306268  0.09543493  0.22401785    -0.54900
C1364       C  0.85600476  0.11578362  0.19496028     0.09100
C1365       C  0.81903323  0.04231021  0.19895435    -0.54500
C1366       C  0.82093751  0.06023780  0.16936109     0.09600
H1367       H  0.91048875  0.02127636  0.21108016     0.14200
H1368       H  0.85971615  0.10147323  0.14086820    -0.00100
H1369       H  0.85093652  0.10831211  0.24792186     0.14500
H1370       H  0.79654781  0.02151336  0.20535770     0.14200
C1371       C  0.85716852  0.22456184  0.22173753     0.86000
C1372       C  0.82245005  0.23414995  0.20106359    -0.54200
C1373       C  0.82248584  0.21690155  0.17144881     0.09000
C1374       C  0.85836519  0.18987110  0.16530453     0.19900
C1375       C  0.85772007  0.18049329  0.22447440    -0.54900
C1376       C  0.85768677  0.16059330  0.19517606     0.09100
C1377       C  0.89223030  0.23481423  0.20091380    -0.54500
C1378       C  0.89400660  0.21729661  0.17137745     0.09600
H1379       H  0.80053528  0.25504247  0.20848030     0.14200
H1380       H  0.85876687  0.17583470  0.14106793    -0.00100
H1381       H  0.85810635  0.16740305  0.24842725     0.14500
H1382       H  0.91459061  0.25446922  0.20927371     0.14200
C1383       C  0.70127559  0.03083177  0.39442961     0.86000
C1384       C  0.67221098  0.02241027  0.36718625    -0.54200
C1385       C  0.67375712  0.48461208  0.35570118     0.09000
C1386       C  0.70701994  0.46022453  0.36997643     0.19900
C1387       C  0.69393806  0.99846846  0.41937595    -0.54900
C1388       C  0.69627260  0.46071863  0.40670691     0.09100
C1389       C  0.74034499  0.02232084  0.38000599    -0.54500
C1390       C  0.74451690  0.48621068  0.36620509     0.09600
H1391       H  0.65110257  0.04350278  0.35897373     0.14200
H1392       H  0.70959304  0.43063463  0.35939465    -0.00100
H1393       H  0.68609647  0.00410729  0.44466213     0.14500
H1394       H  0.76304805  0.04416117  0.37988190     0.14200
C1395       C  0.96996595  0.47418487  0.35664389     0.86000
C1396       C  0.50331179  0.47292658  0.33471207    -0.54200
C1397       C  0.53924178  0.47715594  0.34822257     0.09000
C1398       C  0.53734122  0.48733084  0.38503332     0.19900
C1399       C  0.97993885  0.44495617  0.38403375    -0.54900
C1400       C  0.51551444  0.45177258  0.39921497     0.09100
C1401       C  0.97628684  0.01667245  0.37271675    -0.54500
C1402       C  0.50861474  0.02288687  0.38686877     0.09600
H1403       H  0.99945815  0.46288572  0.30665266     0.14200
H1404       H  0.56598322  0.49228095  0.39610241    -0.00100
H1405       H  0.96037388  0.42227811  0.39231338     0.14500
H1406       H  0.95313626  0.03802860  0.37318342     0.14200
C1407       C  0.97361292  0.30270694  0.35654190     0.86000
C1408       C  0.98151267  0.33106065  0.38473272    -0.54200
C1409       C  0.51673257  0.32771575  0.39994243     0.09000
C1410       C  0.54018034  0.29359298  0.38526648     0.19900
C1411       C  0.50773955  0.31033028  0.33458822    -0.54900
C1412       C  0.54305672  0.30568813  0.34875311     0.09100
C1413       C  0.97858474  0.26272998  0.37102150    -0.54500
C1414       C  0.51207308  0.25732904  0.38659286     0.09600
H1415       H  0.96131190  0.35336901  0.39239932     0.14200
H1416       H  0.56850659  0.28877194  0.39695004    -0.00100
H1417       H  0.00438128  0.31625160  0.30774768     0.14500
H1418       H  0.95562389  0.24116098  0.37039171     0.14200
C1419       C  0.77564647  0.14286608  0.02156265     0.86000
C1420       C  0.76578573  0.17679592  0.04317695    -0.54200
C1421       C  0.78177315  0.17549982  0.07327284     0.09000
C1422       C  0.80835926  0.13965208  0.07873816     0.19900
C1423       C  0.81956481  0.14214823  0.01972699    -0.54900
C1424       C  0.83850035  0.14032534  0.04934901     0.09100
C1425       C  0.76435495  0.10731744  0.04131243    -0.54500
C1426       C  0.78047400  0.10537650  0.07140297     0.09600
H1427       H  0.74643551  0.19989739  0.03546234     0.14200
H1428       H  0.82147103  0.13832456  0.10321737    -0.00100
H1429       H  0.83217682  0.14400966  0.49705440     0.14500
H1430       H  0.74417049  0.08569238  0.03245336     0.14200
C1431       C  0.94773040  0.13713481  0.02426313     0.86000
C1432       C  0.95627275  0.10205096  0.04586456    -0.54200
C1433       C  0.93848959  0.10275207  0.07555165     0.09000
C1434       C  0.91156902  0.13912721  0.08036205     0.19900
C1435       C  0.90407937  0.13802967  0.02135911    -0.54900
C1436       C  0.88326205  0.13917878  0.05021353     0.09100
C1437       C  0.95806684  0.17251527  0.04476333    -0.54500
C1438       C  0.93995700  0.17407844  0.07430711     0.09600
H1439       H  0.97746697  0.08004999  0.03932249     0.14200
H1440       H  0.89714748  0.13990880  0.10455779    -0.00100
H1441       H  0.89088677  0.13885976  0.49759624     0.14500
H1442       H  0.98022014  0.19326636  0.03745123     0.14200
O1443       O  0.71224389  0.10053977  0.39104122    -0.58300
C1444       C  0.70583768  0.22286507  0.40390993     0.74400
O1445       O  0.64841912  0.15118298  0.46743374    -0.59400
C1446       C  0.70213901  0.07132355  0.40823956     0.74300
C1447       C  0.75318766  0.14427351  0.49175421     0.76700
Cd1448     Cd  0.70575314  0.14797771  0.43597860     1.37500
O1449       O  0.72770731  0.19438956  0.39654201    -0.58300
O1450       O  0.76906655  0.14415767  0.46363980    -0.57100
C1451       C  0.63012492  0.14354073  0.44161723     0.76700
O1452       O  0.71688744  0.14716819  0.49297200    -0.59400
O1453       O  0.68288615  0.21758103  0.42763659    -0.57900
O1454       O  0.69622940  0.07751410  0.43822488    -0.57900
O1455       O  0.64791054  0.13916855  0.41489458    -0.57100
O1456       O  0.99017013  0.08869714  0.39896764    -0.58300
C1457       C  0.51593548  0.21806583  0.40238683     0.74400
O1458       O  0.00565853  0.13741584  0.49287151    -0.59400
C1459       C  0.51298169  0.06177709  0.40310815     0.74300
C1460       C  0.58982190  0.14069757  0.44114595     0.76700
Cd1461     Cd  0.51457115  0.13991458  0.43399468     1.37500
O1462       O  0.99411739  0.18915668  0.39496026    -0.58300
O1463       O  0.57410610  0.13531257  0.41384301    -0.57100
C1464       C  0.96938178  0.14012299  0.49264975     0.76700
O1465       O  0.56944852  0.14416287  0.46684192    -0.59400
O1466       O  0.53632728  0.21152888  0.42702482    -0.57900
O1467       O  0.53755557  0.06902022  0.42468537    -0.57900
O1468       O  0.95375085  0.14282968  0.46492299    -0.57100
C1469       C  0.75298262  0.30635154  0.35881694     0.86000
C1470       C  0.72059741  0.31191572  0.33419498    -0.54200
C1471       C  0.68407630  0.30818333  0.34719069     0.09000
C1472       C  0.68352837  0.29684704  0.38364320     0.19900
C1473       C  0.74284843  0.33530427  0.38624049    -0.54900
C1474       C  0.70581249  0.33082525  0.39848143     0.09100
C1475       C  0.74605168  0.26670293  0.37361713    -0.54500
C1476       C  0.71091943  0.26075550  0.38687757     0.09600
H1477       H  0.72612102  0.31960756  0.30882241     0.14200
H1478       H  0.65421039  0.29253726  0.39424207    -0.00100
H1479       H  0.76249213  0.35760584  0.39465747     0.14500
H1480       H  0.76838684  0.24461156  0.37478902     0.14200
C1481       C  0.76797916  0.27674129  0.60682208     0.86000
C1482       C  0.79578367  0.26973781  0.63505959    -0.54200
C1483       C  0.79383473  0.23265844  0.64773521     0.09000
C1484       C  0.76153495  0.20753516  0.63279903     0.19900
C1485       C  0.77685310  0.24422303  0.58315954    -0.54900
C1486       C  0.77398341  0.20787593  0.59633378     0.09100
C1487       C  0.72825601  0.26827096  0.62001618    -0.54500
C1488       C  0.72368925  0.23333247  0.63472393     0.09600
H1489       H  0.81683846  0.29108776  0.64277686     0.14200
H1490       H  0.75872745  0.17805564  0.64375604    -0.00100
H1491       H  0.78544213  0.24934647  0.55790147     0.14500
H1492       H  0.70536903  0.28985208  0.61883627     0.14200
C1493       C  0.49837975  0.05447747  0.64402716     0.86000
C1494       C  0.98905245  0.08408496  0.61530588    -0.54200
C1495       C  0.95310274  0.07943489  0.60181205     0.09000
C1496       C  0.93042113  0.04432903  0.61602770     0.19900
C1497       C  0.96363267  0.05914248  0.66673603    -0.54900
C1498       C  0.92785324  0.05489732  0.65286020     0.09100
C1499       C  0.99310148  0.01531209  0.62768183    -0.54500
C1500       C  0.95892031  0.00838620  0.61341555     0.09600
H1501       H  0.50973951  0.10582520  0.60819980     0.14200
H1502       H  0.90198130  0.03966347  0.60452398    -0.00100
H1503       H  0.96734420  0.06630483  0.69227739     0.14500
H1504       H  0.51572692  0.49339071  0.62916809     0.14200
C1505       C  0.50125297  0.22515393  0.64201908     0.86000
C1506       C  0.96574786  0.21857221  0.66485789    -0.54200
C1507       C  0.92988797  0.22349297  0.65129258     0.09000
C1508       C  0.93206205  0.23716908  0.61523341     0.19900
C1509       C  0.99122841  0.19836031  0.61237633    -0.54900
C1510       C  0.95489033  0.20351591  0.59949495     0.09100
C1511       C  0.99442797  0.26608476  0.62819307    -0.54500
C1512       C  0.96016202  0.27347898  0.61417349     0.09600
H1513       H  0.96963539  0.20968110  0.69008262     0.14200
H1514       H  0.90347406  0.24241811  0.60412674    -0.00100
H1515       H  0.51196870  0.17496420  0.60528858     0.14500
H1516       H  0.51868032  0.28706553  0.62829018     0.14200
C1517       C  0.52342777  0.39068809  0.97579505     0.86000
C1518       C  0.51472619  0.35434784  0.95587737    -0.54200
C1519       C  0.53234848  0.35348170  0.92607150     0.09000
C1520       C  0.55878811  0.38941126  0.91923893     0.19900
C1521       C  0.56716568  0.39226500  0.97807872    -0.54900
C1522       C  0.58736979  0.39057525  0.94887008     0.09100
C1523       C  0.51272033  0.42475742  0.95378402    -0.54500
C1524       C  0.53036345  0.42454462  0.92401335     0.09600
H1525       H  0.99221882  0.33445069  0.96464354     0.14200
H1526       H  0.57287980  0.38871782  0.89486792    -0.00100
H1527       H  0.57943031  0.39106669  0.50246862     0.14500
H1528       H  0.99271233  0.44794387  0.96225573     0.14200
C1529       C  0.69473537  0.38731826  0.97593304     0.86000
C1530       C  0.70380295  0.42456442  0.95728832    -0.54200
C1531       C  0.68764668  0.42695844  0.92739119     0.10600
C1532       C  0.66162828  0.39143110  0.91930301     0.19900
C1533       C  0.65106154  0.38543040  0.97816675    -0.54900
C1534       C  0.63189361  0.38859706  0.94888178     0.09100
C1535       C  0.70640939  0.35451924  0.95335270    -0.54500
C1536       C  0.69013962  0.35646610  0.92356308     0.09600
H1537       H  0.72295380  0.44685427  0.96661798     0.14200
H1538       H  0.64845763  0.39325046  0.89489987    -0.00100
H1539       H  0.63759132  0.38312643  0.50264509     0.14500
H1540       H  0.72813077  0.33298418  0.95954657     0.14200
O1541       O  0.75353170  0.43258513  0.60573019    -0.58300
C1542       C  0.76789614  0.31594079  0.59149589     0.74400
O1543       O  0.75247754  0.39070178  0.50559646    -0.59400
C1544       C  0.76567277  0.46200251  0.58983622     0.74300
C1545       C  0.84085261  0.38955491  0.55552857     0.76700
Cd1546     Cd  0.76439072  0.38831705  0.56111616     1.37500
O1547       O  0.75320828  0.34489208  0.60618599    -0.58300
O1548       O  0.82282244  0.39295128  0.58216388    -0.57100
C1549       C  0.71632547  0.38683037  0.50733362     0.76700
O1550       O  0.82250974  0.38533243  0.52924369    -0.59400
O1551       O  0.77900105  0.32084962  0.56228887    -0.57900
O1552       O  0.77428111  0.45713569  0.56007277    -0.57900
O1553       O  0.70080697  0.38339777  0.53548837    -0.57100
O1554       O  0.98055816  0.44160759  0.60296006    -0.58300
C1555       C  0.95621478  0.31276750  0.59825313     0.74400
O1556       O  0.90234852  0.38789215  0.53130465    -0.59400
C1557       C  0.95591523  0.46834748  0.59784437     0.74300
C1558       C  0.50135070  0.39061831  0.50818514     0.76700
Cd1559     Cd  0.95647832  0.39059598  0.56585637     1.37500
O1560       O  0.97869953  0.34067229  0.60540343    -0.58300
O1561       O  0.51759731  0.39040534  0.53577825    -0.57100
C1562       C  0.88130069  0.39020503  0.55673648     0.76700
O1563       O  0.96540814  0.39146298  0.50672528    -0.59400
O1564       O  0.93289818  0.32006749  0.57573755    -0.57900
O1565       O  0.93075444  0.46022846  0.57704513    -0.57900
O1566       O  0.89640476  0.39297671  0.58457309    -0.57100
C1567       C  0.76583712  0.50142255  0.60475614     0.86000
C1568       C  0.77436786  0.03443045  0.58141632    -0.54200
C1569       C  0.77196356  0.07087496  0.59416713     0.09000
C1570       C  0.76005992  0.07151496  0.63076799     0.19900
C1571       C  0.79482486  0.00971828  0.63365438    -0.54900
C1572       C  0.79274940  0.04695420  0.64584183     0.09100
C1573       C  0.72698520  0.01027827  0.61965994    -0.54500
C1574       C  0.72242160  0.04548151  0.63363697     0.09600
H1575       H  0.78262065  0.02916461  0.55615044     0.14200
H1576       H  0.75722840  0.10108905  0.64129488    -0.00100
H1577       H  0.81558587  0.48780244  0.64042821     0.14500
H1578       H  0.70380136  0.48728550  0.61830876     0.14200
O1579       O  0.56719007  0.20033677  0.65102797    -0.58300
C1580       C  0.68617785  0.22795255  0.65286757     0.74400
O1581       O  0.61823360  0.24477147  0.74829221    -0.59400
C1582       C  0.54059728  0.22426420  0.65798300     0.74300
C1583       C  0.60976873  0.16072163  0.72308636     0.76700
Cd1584     Cd  0.61430884  0.22954750  0.69206630     1.37500
O1585       O  0.66026713  0.25414056  0.65169232    -0.58300
O1586       O  0.57936613  0.17786671  0.71441345    -0.57100
C1587       C  0.61482451  0.28115124  0.74647861     0.76700
O1588       O  0.64114007  0.17936434  0.72377747    -0.59400
O1589       O  0.67849824  0.19949553  0.67131492    -0.57900
O1590       O  0.54917276  0.25020647  0.67854300    -0.57900
O1591       O  0.61228200  0.29580918  0.71809132    -0.57100
O1592       O  0.66032795  0.02380454  0.65331421    -0.58300
C1593       C  0.53813907  0.05514511  0.65956244     0.74400
O1594       O  0.61889628  0.03674698  0.74855863    -0.59400
C1595       C  0.68500935  0.05119975  0.65179523     0.74300
C1596       C  0.61044359  0.11967659  0.72243487     0.76700
Cd1597     Cd  0.61382667  0.05071646  0.69171085     1.37500
O1598       O  0.56454764  0.07910443  0.65195368    -0.58300
O1599       O  0.57980876  0.10164537  0.71593134    -0.57100
C1600       C  0.61711673  0.49972398  0.74656575     0.76700
O1601       O  0.64242422  0.10224864  0.72013386    -0.59400
O1602       O  0.54762095  0.02889946  0.67977800    -0.57900
O1603       O  0.67601926  0.08151876  0.66730337    -0.57900
O1604       O  0.61605228  0.48447360  0.71841575    -0.57100
C1605       C  0.61579263  0.47733808  0.77790596     0.86000
C1606       C  0.64898480  0.48768005  0.80001944    -0.54200
C1607       C  0.64768156  0.47027718  0.82973580     0.09000
C1608       C  0.61188730  0.44229369  0.83439471     0.19900
C1609       C  0.61661541  0.43332123  0.77536766    -0.54900
C1610       C  0.61423873  0.41310937  0.80451321     0.09100
C1611       C  0.57921551  0.48672677  0.79723469    -0.54500
C1612       C  0.57622393  0.46919685  0.82692135     0.09600
H1613       H  0.67201505  0.00764626  0.79360058     0.14200
H1614       H  0.61012418  0.42807966  0.85862565    -0.00100
H1615       H  0.61932315  0.42040009  0.75156036     0.14500
H1616       H  0.55821274  0.00727832  0.78910168     0.14200
C1617       C  0.61418089  0.30391431  0.77750717     0.86000
C1618       C  0.57985137  0.29330919  0.79893414    -0.54200
C1619       C  0.57884147  0.31107690  0.82852102     0.09000
C1620       C  0.61410097  0.33881705  0.83401114     0.19900
C1621       C  0.61321637  0.34814137  0.77489786    -0.54900
C1622       C  0.61363128  0.36812283  0.80421489     0.09100
C1623       C  0.64919526  0.29467498  0.79761390    -0.54500
C1624       C  0.64988695  0.31207625  0.82715385     0.09600
H1625       H  0.55728489  0.27372608  0.79088425     0.14200
H1626       H  0.61421689  0.35306796  0.85816890    -0.00100
H1627       H  0.61211430  0.36125538  0.75099998     0.14500
H1628       H  0.67203451  0.27545779  0.78903813     0.14200
O1629       O  0.90354521  0.95198839  0.85002661    -0.58300
C1630       C  0.78343373  0.48009355  0.84938427     0.74400
O1631       O  0.84878120  0.99405447  0.75277640    -0.59400
C1632       C  0.93030524  0.47550394  0.84370173     0.74300
C1633       C  0.86520563  0.41203045  0.77806735     0.76700
Cd1634     Cd  0.85549556  0.48011987  0.81023873     1.37500
O1635       O  0.80764595  0.00698744  0.84735797    -0.58300
O1636       O  0.89427318  0.43126489  0.78670795    -0.57100
C1637       C  0.85122057  0.03051384  0.75393246     0.76700
O1638       O  0.83217538  0.42736758  0.78027830    -0.59400
O1639       O  0.79114147  0.45089025  0.83195110    -0.57900
O1640       O  0.92134470  0.50149295  0.82303711    -0.57900
O1641       O  0.85351205  0.04560183  0.78209299    -0.57100
O1642       O  0.92932328  0.28233849  0.81881964    -0.58300
C1643       C  0.79358872  0.30847550  0.84228611     0.74400
O1644       O  0.83762925  0.35150385  0.77314411    -0.59400
C1645       C  0.93543110  0.30567060  0.84203524     0.74300
C1646       C  0.85890538  0.24969681  0.75253372     0.76700
Cd1647     Cd  0.86453779  0.30247733  0.80526883     1.37500
O1648       O  0.81593529  0.27914238  0.84267508    -0.58300
O1649       O  0.85946245  0.23558858  0.78121807    -0.57100
C1650       C  0.86824393  0.37124547  0.77465439     0.76700
O1651       O  0.86061266  0.28613438  0.74980263    -0.59400
O1652       O  0.80547090  0.33750993  0.82619986    -0.57900
O1653       O  0.90764638  0.32757256  0.85009376    -0.57900
O1654       O  0.89941606  0.35470556  0.78236754    -0.57100
C1655       C  0.85259433  0.05296324  0.72250898     0.86000
C1656       C  0.88864129  0.04289594  0.70261774    -0.54200
C1657       C  0.89148193  0.06061479  0.67293645     0.09000
C1658       C  0.85626412  0.08814129  0.66598889     0.19900
C1659       C  0.85278468  0.09700199  0.72506058    -0.54900
C1660       C  0.85498200  0.11716617  0.69586971     0.09100
C1661       C  0.81882160  0.04343326  0.70075072    -0.54500
C1662       C  0.82006527  0.06095842  0.67106731     0.09600
H1663       H  0.91067232  0.02323759  0.71163832     0.14200
H1664       H  0.85788973  0.10244956  0.64177360    -0.00100
H1665       H  0.85108069  0.11001476  0.74896343     0.14500
H1666       H  0.79659207  0.02252904  0.70759943     0.14200
C1667       C  0.85767658  0.22630305  0.72201818     0.86000
C1668       C  0.82315175  0.23673019  0.70135051    -0.54200
C1669       C  0.82239745  0.21888064  0.67197029     0.09000
C1670       C  0.85766206  0.19101213  0.66583982     0.19900
C1671       C  0.85689267  0.18220804  0.72504217    -0.54900
C1672       C  0.85653239  0.16200859  0.69587442     0.09100
C1673       C  0.89284841  0.23530731  0.70108770    -0.54500
C1674       C  0.89395546  0.21768893  0.67165188     0.09600
H1675       H  0.80178029  0.25819652  0.70873434     0.14200
H1676       H  0.85763272  0.17677919  0.64169219    -0.00100
H1677       H  0.85685917  0.16930293  0.74911412     0.14500
H1678       H  0.91574303  0.25447998  0.70922896     0.14200
C1679       C  0.70134563  0.02985798  0.89434705     0.86000
C1680       C  0.67254560  0.02080607  0.86708090    -0.54200
C1681       C  0.67490177  0.48473262  0.85502154     0.09000
C1682       C  0.70799643  0.46063021  0.86994595     0.19900
C1683       C  0.69426399  0.99771064  0.91960131    -0.54900
C1684       C  0.69651426  0.46135277  0.90654400     0.09100
C1685       C  0.74057978  0.02150513  0.88014041    -0.54500
C1686       C  0.74555241  0.48668149  0.86673789     0.09600
H1687       H  0.65135609  0.04161978  0.85852926     0.14200
H1688       H  0.71091725  0.43095896  0.85958768    -0.00100
H1689       H  0.68636773  0.00350103  0.94485232     0.14500
H1690       H  0.76307162  0.04356593  0.87983498     0.14200
C1691       C  0.97015572  0.47593987  0.85909695     0.86000
C1692       C  0.50388109  0.47179067  0.83319400    -0.54200
C1693       C  0.53986170  0.47549660  0.84689922     0.09000
C1694       C  0.53771796  0.48580578  0.88367915     0.19900
C1695       C  0.97974994  0.44683222  0.88666832    -0.54900
C1696       C  0.51526957  0.45067895  0.89785002     0.09100
C1697       C  0.97621331  0.01525670  0.87153598    -0.54500
C1698       C  0.51007943  0.02309561  0.88626953     0.09600
H1699       H  0.99966847  0.46411100  0.80929982     0.14200
H1700       H  0.56630770  0.49038222  0.89494813    -0.00100
H1701       H  0.96003742  0.42424745  0.89490023     0.14500
H1702       H  0.95325958  0.03683664  0.87201985     0.14200
C1703       C  0.97353972  0.30435794  0.85937841     0.86000
C1704       C  0.98116258  0.33196222  0.88808670    -0.54200
C1705       C  0.51714766  0.32720455  0.90053664     0.09000
C1706       C  0.54015399  0.29334437  0.88504853     0.19900
C1707       C  0.50781560  0.31228170  0.83488782    -0.54900
C1708       C  0.54307858  0.30651784  0.84883955     0.09100
C1709       C  0.97860179  0.26391411  0.87313910    -0.54500
C1710       C  0.51161656  0.25752044  0.88566040     0.09600
H1711       H  0.96101858  0.35429444  0.89585400     0.14200
H1712       H  0.56845098  0.28776323  0.89655248    -0.00100
H1713       H  0.00437429  0.31938222  0.81098201     0.14500
H1714       H  0.95573435  0.24230424  0.87193306     0.14200
C1715       C  0.77489889  0.14182397  0.52304346     0.86000
C1716       C  0.76451068  0.17541893  0.54485060    -0.54200
C1717       C  0.78113565  0.17454131  0.57467953     0.09000
C1718       C  0.80838023  0.13923729  0.57988152     0.19900
C1719       C  0.81875904  0.14209108  0.52081356    -0.54900
C1720       C  0.83805397  0.14064720  0.55020474     0.09100
C1721       C  0.76456157  0.10597407  0.54278099    -0.54500
C1722       C  0.78100422  0.10442834  0.57278776     0.09600
H1723       H  0.74477151  0.19827681  0.53732676     0.14200
H1724       H  0.82182161  0.13825772  0.60421368    -0.00100
H1725       H  0.83328127  0.14354892  0.99600953     0.14500
H1726       H  0.74456944  0.08405225  0.53411889     0.14200
C1727       C  0.94704784  0.14050088  0.52424347     0.86000
C1728       C  0.95654270  0.10570557  0.54596671    -0.54200
C1729       C  0.93859290  0.10589584  0.57561589     0.09000
C1730       C  0.91117076  0.14169860  0.58048952     0.19900
C1731       C  0.90333423  0.14022917  0.52150800    -0.54900
C1732       C  0.88274748  0.14090264  0.55054743     0.09100
C1733       C  0.95654426  0.17618941  0.54446678    -0.54500
C1734       C  0.93887115  0.17718189  0.57414015     0.09600
H1735       H  0.97805421  0.08405476  0.53935971     0.14200
H1736       H  0.89687887  0.14223739  0.60476767    -0.00100
H1737       H  0.89175618  0.13716471  0.99735166     0.14500
H1738       H  0.97823468  0.19739163  0.53704179     0.14200
O1739       O  0.71142012  0.09966214  0.89001197    -0.58300
C1740       C  0.70820840  0.22324259  0.90429171     0.74400
O1741       O  0.64808506  0.14752912  0.96570674    -0.59400
C1742       C  0.70177385  0.07062808  0.90762083     0.74300
C1743       C  0.75387395  0.14521957  0.99025805     0.76700
Cd1744     Cd  0.70589816  0.14766551  0.93475884     1.37500
O1745       O  0.73044231  0.19496702  0.89708532    -0.58300
O1746       O  0.76957065  0.14415191  0.96209704    -0.57100
C1747       C  0.62978014  0.14445879  0.93922368     0.76700
O1748       O  0.71757952  0.14847687  0.99156867    -0.59400
O1749       O  0.68409542  0.21735783  0.92708519    -0.57900
O1750       O  0.69623354  0.07723126  0.93757382    -0.57900
O1751       O  0.64764812  0.14456992  0.91223466    -0.57100
O1752       O  0.99349070  0.08884568  0.89456815    -0.58300
C1753       C  0.51501389  0.21815097  0.90111997     0.74400
O1754       O  0.00605689  0.13248435  0.99256230    -0.59400
C1755       C  0.51411011  0.06231453  0.90182131     0.74300
C1756       C  0.58944147  0.14134347  0.93860042     0.76700
Cd1757     Cd  0.51420542  0.14016487  0.93221722     1.37500
O1758       O  0.99471722  0.18901541  0.89506963    -0.58300
O1759       O  0.57361453  0.13778164  0.91109834    -0.57100
C1760       C  0.96990234  0.13635811  0.99255052     0.76700
O1761       O  0.56917294  0.14261795  0.96454119    -0.59400
O1762       O  0.53736155  0.21072514  0.92428497    -0.57900
O1763       O  0.53875193  0.07020560  0.92313958    -0.57900
O1764       O  0.95422767  0.14018068  0.96490261    -0.57100
C1765       C  0.75384746  0.30694944  0.85803844     0.86000
C1766       C  0.72097154  0.31053381  0.83363375    -0.54200
C1767       C  0.68476244  0.30645307  0.84720640     0.09000
C1768       C  0.68501824  0.29657779  0.88384732     0.19900
C1769       C  0.74326226  0.33679716  0.88469503    -0.54900
C1770       C  0.70652534  0.33176714  0.89747373     0.09100
C1771       C  0.74822351  0.26774421  0.87414068    -0.54500
C1772       C  0.71331430  0.26135572  0.88769026     0.09600
H1773       H  0.72588346  0.31743301  0.80801797     0.14200
H1774       H  0.65595475  0.29187186  0.89483064    -0.00100
H1775       H  0.76246501  0.35987897  0.89235365     0.14500
H1776       H  0.77100435  0.24613513  0.87553271     0.14200
C1777       C  0.77032483  0.77708478  0.10928474     0.86000
C1778       C  0.79731023  0.76889811  0.13785662    -0.54200
C1779       C  0.79409814  0.73166680  0.15005647     0.09000
C1780       C  0.76172447  0.70752475  0.13426651     0.19900
C1781       C  0.77896003  0.74470741  0.08534211    -0.54900
C1782       C  0.77506988  0.70819884  0.09798046     0.09100
C1783       C  0.73007110  0.76920130  0.12184184    -0.54500
C1784       C  0.72443531  0.73412654  0.13602122     0.09600
H1785       H  0.81872844  0.78953571  0.14617785     0.14200
H1786       H  0.75805277  0.67792316  0.14481437    -0.00100
H1787       H  0.78809966  0.75004043  0.06025063     0.14500
H1788       H  0.70762815  0.79124381  0.12081388     0.14200
C1789       C  0.49856348  0.55513859  0.14398759     0.86000
C1790       C  0.98935744  0.58379514  0.11758185    -0.54200
C1791       C  0.95354338  0.57818911  0.10404719     0.09000
C1792       C  0.93127869  0.54333752  0.11896769     0.19900
C1793       C  0.96391122  0.56023854  0.16950277    -0.54900
C1794       C  0.92837934  0.55494831  0.15543114     0.09100
C1795       C  0.99413823  0.51550208  0.13160175    -0.54500
C1796       C  0.96015940  0.50782773  0.11722201     0.09600
H1797       H  0.50959131  0.60606044  0.10766462     0.14200
H1798       H  0.90296673  0.53791515  0.10746772    -0.00100
H1799       H  0.96722446  0.56809750  0.19494409     0.14500
H1800       H  0.51572197  0.99378074  0.12913308     0.14200
C1801       C  0.50063145  0.72486875  0.14212215     0.86000
C1802       C  0.96475802  0.71905174  0.16570768    -0.54200
C1803       C  0.92883044  0.72341515  0.15220108     0.09000
C1804       C  0.93089000  0.73561654  0.11564437     0.19900
C1805       C  0.98992886  0.69643590  0.11379323    -0.54900
C1806       C  0.95375122  0.70134675  0.10061226     0.09100
C1807       C  0.99353858  0.76467064  0.12744733    -0.54500
C1808       C  0.95911248  0.77187324  0.11351403     0.09600
H1809       H  0.96878917  0.71107303  0.19111712     0.14200
H1810       H  0.90226862  0.74046370  0.10447164    -0.00100
H1811       H  0.51218298  0.67481714  0.10550547     0.14500
H1812       H  0.51843810  0.78667553  0.12893295     0.14200
C1813       C  0.52190437  0.89261969  0.47610839     0.86000
C1814       C  0.51254740  0.85642445  0.45629056    -0.54200
C1815       C  0.53032534  0.85499188  0.42661402     0.09000
C1816       C  0.55753437  0.89045627  0.41978901     0.19900
C1817       C  0.56555974  0.89330588  0.47867612    -0.54900
C1818       C  0.58590741  0.89150176  0.44959943     0.09100
C1819       C  0.51203579  0.92687679  0.45405382    -0.54500
C1820       C  0.52981474  0.92614897  0.42435403     0.09600
H1821       H  0.99336549  0.83526150  0.46346874     0.14200
H1822       H  0.57177156  0.88949112  0.39549552    -0.00100
H1823       H  0.58005924  0.89327502  0.00292003     0.14500
H1824       H  0.99330942  0.94876751  0.45994491     0.14200
C1825       C  0.69314536  0.88898660  0.47700668     0.86000
C1826       C  0.70253280  0.92578183  0.45793178    -0.54200
C1827       C  0.68650604  0.92774150  0.42795837     0.10600
C1828       C  0.66004870  0.89238007  0.42031491     0.19900
C1829       C  0.64947906  0.88756006  0.47927362    -0.54900
C1830       C  0.63036994  0.89009972  0.44989058     0.09100
C1831       C  0.70449160  0.85570184  0.45475273    -0.54500
C1832       C  0.68807649  0.85724692  0.42497565     0.09600
H1833       H  0.72191832  0.94802670  0.46699832     0.14200
H1834       H  0.64684854  0.89390540  0.39590018    -0.00100
H1835       H  0.63813625  0.88241938  0.00325393     0.14500
H1836       H  0.72607178  0.83410896  0.46113856     0.14200
O1837       O  0.75750192  0.93318467  0.10585748    -0.58300
C1838       C  0.77146927  0.81650245  0.09406596     0.74400
O1839       O  0.75354722  0.88840860  0.00566850    -0.59400
C1840       C  0.76674893  0.96277827  0.08886699     0.74300
C1841       C  0.84192362  0.89239012  0.05371205     0.76700
Cd1842     Cd  0.76604955  0.88807768  0.06135347     1.37500
O1843       O  0.75346214  0.84491929  0.10676896    -0.58300
O1844       O  0.82420510  0.90088677  0.07964350    -0.57100
C1845       C  0.71730982  0.88579111  0.00768615     0.76700
O1846       O  0.82337811  0.88238885  0.02866606    -0.59400
O1847       O  0.78635441  0.82176853  0.06612774    -0.57900
O1848       O  0.77253325  0.95766051  0.05866337    -0.57900
O1849       O  0.70208166  0.88309472  0.03599505    -0.57100
O1850       O  0.98065211  0.93980463  0.10393359    -0.58300
C1851       C  0.95511826  0.81126142  0.09749927     0.74400
O1852       O  0.90334511  0.88497846  0.03021898    -0.59400
C1853       C  0.95731567  0.96742517  0.09770978     0.74300
C1854       C  0.50194122  0.89164692  0.00845808     0.76700
Cd1855     Cd  0.95690223  0.88966416  0.06532728     1.37500
O1856       O  0.97855020  0.83862181  0.10385987    -0.58300
O1857       O  0.51815789  0.89024894  0.03604393    -0.57100
C1858       C  0.88229593  0.89249174  0.05489572     0.76700
O1859       O  0.96588666  0.89125443  0.00639051    -0.59400
O1860       O  0.93080379  0.81936548  0.07592795    -0.57900
O1861       O  0.93323804  0.96014090  0.07580338    -0.57900
O1862       O  0.89726810  0.89898435  0.08232527    -0.57100
C1863       C  0.76705448  0.00236818  0.10345149     0.86000
C1864       C  0.77430404  0.53485866  0.08176777    -0.54200
C1865       C  0.77160049  0.57106569  0.09491136     0.09000
C1866       C  0.76028520  0.57109867  0.13162327     0.19900
C1867       C  0.79592338  0.50973960  0.13353252    -0.54900
C1868       C  0.79349126  0.54674301  0.14618758     0.09100
C1869       C  0.72783083  0.50959169  0.12037663    -0.54500
C1870       C  0.72303164  0.54458907  0.13463023     0.09600
H1871       H  0.78233491  0.53005307  0.05638460     0.14200
H1872       H  0.75721935  0.60049887  0.14244547    -0.00100
H1873       H  0.81772073  0.98899558  0.13819811     0.14500
H1874       H  0.70557969  0.98765529  0.11819074     0.14200
O1875       O  0.56716500  0.70135838  0.15088463    -0.58300
C1876       C  0.68656080  0.72924178  0.15379918     0.74400
O1877       O  0.61253787  0.74539122  0.24908332    -0.59400
C1878       C  0.53984994  0.72418081  0.15842395     0.74300
C1879       C  0.61312496  0.66126820  0.22253453     0.76700
Cd1880     Cd  0.61394879  0.73077002  0.19242268     1.37500
O1881       O  0.65993715  0.75456565  0.15092857    -0.58300
O1882       O  0.58188387  0.67868345  0.21681481    -0.57100
C1883       C  0.61273604  0.78192509  0.24728087     0.76700
O1884       O  0.64458679  0.67963295  0.22025156    -0.59400
O1885       O  0.67943678  0.70220623  0.17383688    -0.57900
O1886       O  0.54779263  0.74967248  0.17951651    -0.57900
O1887       O  0.61450317  0.79678453  0.21886205    -0.57100
O1888       O  0.66243854  0.52162000  0.15662507    -0.58300
C1889       C  0.53821454  0.55609630  0.15963734     0.74400
O1890       O  0.61714596  0.53832062  0.24888120    -0.59400
C1891       C  0.68555817  0.55010858  0.15270801     0.74300
C1892       C  0.61332800  0.62024077  0.22225725     0.76700
Cd1893     Cd  0.61386407  0.55119037  0.19185805     1.37500
O1894       O  0.56536021  0.57860194  0.15079915    -0.58300
O1895       O  0.58211221  0.60262293  0.21701843    -0.57100
C1896       C  0.61700049  0.00031936  0.24643130     0.76700
O1897       O  0.64491406  0.60227355  0.21911431    -0.59400
O1898       O  0.54690767  0.53109027  0.18112574    -0.57900
O1899       O  0.67468283  0.58174438  0.16526170    -0.57900
O1900       O  0.61584757  0.98485450  0.21836540    -0.57100
C1901       C  0.61532667  0.97810646  0.27794961     0.86000
C1902       C  0.64858493  0.98813811  0.30011955    -0.54200
C1903       C  0.64703085  0.97077969  0.32986658     0.09000
C1904       C  0.61097918  0.94323421  0.33455983     0.19900
C1905       C  0.61565968  0.93405584  0.27559289    -0.54900
C1906       C  0.61296832  0.91396508  0.30477838     0.09100
C1907       C  0.57882299  0.98793196  0.29728144    -0.54500
C1908       C  0.57568996  0.97048299  0.32702475     0.09600
H1909       H  0.67008633  0.50988749  0.29434279     0.14200
H1910       H  0.60904187  0.92909121  0.35882237    -0.00100
H1911       H  0.61824896  0.92090853  0.25171841     0.14500
H1912       H  0.55618872  0.50865931  0.28949288     0.14200
C1913       C  0.61185319  0.80468557  0.27832940     0.86000
C1914       C  0.57726906  0.79451147  0.29961949    -0.54200
C1915       C  0.57635671  0.81223851  0.32923843     0.09000
C1916       C  0.61169575  0.83989283  0.33471305     0.19900
C1917       C  0.61127887  0.84885929  0.27556574    -0.54900
C1918       C  0.61168136  0.86901602  0.30474400     0.09100
C1919       C  0.64660892  0.79519399  0.29872502    -0.54500
C1920       C  0.64729459  0.81291222  0.32816478     0.09600
H1921       H  0.55470075  0.77491283  0.29160088     0.14200
H1922       H  0.61181724  0.85429516  0.35880196    -0.00100
H1923       H  0.61039637  0.86193429  0.25151524     0.14500
H1924       H  0.66933124  0.77572351  0.29035500     0.14200
O1925       O  0.90349773  0.44957159  0.34976429    -0.58300
C1926       C  0.78255903  0.98045482  0.34872593     0.74400
O1927       O  0.84782330  0.49206966  0.25289761    -0.59400
C1928       C  0.93054825  0.97688990  0.34262007     0.74300
C1929       C  0.86326815  0.91047458  0.27964097     0.76700
Cd1930     Cd  0.85492771  0.97999736  0.30967531     1.37500
O1931       O  0.80609520  0.50693622  0.34470638    -0.58300
O1932       O  0.89240749  0.92994263  0.28768992    -0.57100
C1933       C  0.85048977  0.52851459  0.25463781     0.76700
O1934       O  0.83029615  0.92610215  0.28115915    -0.59400
O1935       O  0.79201021  0.94960187  0.33410987    -0.57900
O1936       O  0.92097700  0.00272983  0.32204345    -0.57900
O1937       O  0.85349572  0.54302347  0.28292149    -0.57100
O1938       O  0.92745855  0.78035258  0.32065789    -0.58300
C1939       C  0.79104757  0.80782497  0.34425599     0.74400
O1940       O  0.83632079  0.84938402  0.27430120    -0.59400
C1941       C  0.93437804  0.80447523  0.34313335     0.74300
C1942       C  0.85834266  0.74811970  0.25475062     0.76700
Cd1943     Cd  0.86248304  0.80077637  0.30777304     1.37500
O1944       O  0.81327037  0.77839891  0.34529380    -0.58300
O1945       O  0.85943777  0.73385896  0.28337566    -0.57100
C1946       C  0.86646046  0.86957834  0.27740082     0.76700
O1947       O  0.85857017  0.78461996  0.25221587    -0.59400
O1948       O  0.80336427  0.83647840  0.32796021    -0.57900
O1949       O  0.90684962  0.82662568  0.35135102    -0.57900
O1950       O  0.89712517  0.85359875  0.28704638    -0.57100
C1951       C  0.85196906  0.55161891  0.22367956     0.86000
C1952       C  0.88833070  0.54182002  0.20422074    -0.54200
C1953       C  0.89169163  0.56002541  0.17486984     0.09000
C1954       C  0.85669063  0.58754801  0.16760112     0.19900
C1955       C  0.85215234  0.59567433  0.22671639    -0.54900
C1956       C  0.85512539  0.61610704  0.19767273     0.09100
C1957       C  0.81852916  0.54247939  0.20143526    -0.54500
C1958       C  0.82033775  0.56041004  0.17193122     0.09600
H1959       H  0.91029410  0.52213540  0.21333314     0.14200
H1960       H  0.85880712  0.60216475  0.14354286    -0.00100
H1961       H  0.84984545  0.60849093  0.25063772     0.14500
H1962       H  0.79615983  0.52151946  0.20779903     0.14200
C1963       C  0.85761652  0.72487570  0.22410045     0.86000
C1964       C  0.82233180  0.73423093  0.20400949    -0.54200
C1965       C  0.82170482  0.71675644  0.17447536     0.09000
C1966       C  0.85743134  0.68984429  0.16780194     0.19900
C1967       C  0.85832114  0.68078654  0.22702574    -0.54900
C1968       C  0.85739601  0.66080784  0.19780660     0.09100
C1969       C  0.89207155  0.73509643  0.20254592    -0.54500
C1970       C  0.89311895  0.71747787  0.17301510     0.09600
H1971       H  0.80068395  0.75530680  0.21161721     0.14200
H1972       H  0.85722766  0.67561429  0.14363995    -0.00100
H1973       H  0.85942041  0.66766362  0.25093683     0.14500
H1974       H  0.91458911  0.75486996  0.21040546     0.14200
C1975       C  0.70115439  0.53015108  0.39480392     0.86000
C1976       C  0.67177552  0.52182603  0.36790419    -0.54200
C1977       C  0.67418044  0.98500407  0.35524714     0.09000
C1978       C  0.70724495  0.96076355  0.37010126     0.19900
C1979       C  0.69437343  0.49741566  0.41961472    -0.54900
C1980       C  0.69588508  0.96169613  0.40678636     0.09100
C1981       C  0.74013328  0.52181879  0.37980048    -0.54500
C1982       C  0.74486193  0.98677818  0.36654114     0.09600
H1983       H  0.65044800  0.54289440  0.36004291     0.14200
H1984       H  0.70995664  0.93105361  0.35978756    -0.00100
H1985       H  0.68698281  0.50276164  0.44503620     0.14500
H1986       H  0.76284239  0.54363663  0.37951133     0.14200
C1987       C  0.97079140  0.97732341  0.35750028     0.86000
C1988       C  0.50350022  0.97272632  0.33331257    -0.54200
C1989       C  0.53939836  0.97682309  0.34699915     0.09000
C1990       C  0.53721077  0.98719235  0.38379535     0.19900
C1991       C  0.98057073  0.94789150  0.38481957    -0.54900
C1992       C  0.51491713  0.95198536  0.39799928     0.09100
C1993       C  0.97499934  0.51366274  0.37181857    -0.54500
C1994       C  0.50844145  0.52276021  0.38834857     0.09600
H1995       H  0.00003638  0.96558766  0.30751926     0.14200
H1996       H  0.56576933  0.99192031  0.39507866    -0.00100
H1997       H  0.96082959  0.92532076  0.39303030     0.14500
H1998       H  0.95168733  0.53485139  0.37239433     0.14200
C1999       C  0.97293684  0.80352794  0.35979689     0.86000
C2000       C  0.98140000  0.83195613  0.38776107    -0.54200
C2001       C  0.51507469  0.82820811  0.40137694     0.09000
C2002       C  0.53821726  0.79424813  0.38612552     0.19900
C2003       C  0.50553302  0.81243116  0.33595857    -0.54900
C2004       C  0.54086834  0.80714981  0.34981171     0.09100
C2005       C  0.97768454  0.76354926  0.37433529    -0.54500
C2006       C  0.50990524  0.75813254  0.38710529     0.09600
H2007       H  0.96165805  0.85477909  0.39525692     0.14200
H2008       H  0.56661346  0.78902467  0.39756970    -0.00100
H2009       H  0.00336035  0.81689806  0.31082325     0.14500
H2010       H  0.95455041  0.74216025  0.37374189     0.14200
C2011       C  0.77479514  0.64262296  0.02421518     0.86000
C2012       C  0.76536270  0.67650109  0.04606696    -0.54200
C2013       C  0.78195553  0.67506378  0.07592645     0.09000
C2014       C  0.80839657  0.63904214  0.08098474     0.19900
C2015       C  0.81869853  0.64172704  0.02190443    -0.54900
C2016       C  0.83798918  0.63957266  0.05126873     0.09100
C2017       C  0.76364354  0.60701081  0.04398458    -0.54500
C2018       C  0.78025448  0.60496201  0.07389483     0.09600
H2019       H  0.74614450  0.69984028  0.03862650     0.14200
H2020       H  0.82192647  0.63756206  0.10527652    -0.00100
H2021       H  0.83025459  0.64237275  0.49642759     0.14500
H2022       H  0.74332622  0.58541510  0.03529198     0.14200
C2023       C  0.94704421  0.63725413  0.02549180     0.86000
C2024       C  0.95665778  0.60283955  0.04760655    -0.54200
C2025       C  0.93859258  0.60350704  0.07725701     0.09000
C2026       C  0.91089204  0.63923262  0.08166118     0.19900
C2027       C  0.90328976  0.63669512  0.02271331    -0.54900
C2028       C  0.88263866  0.63821443  0.05166457     0.09100
C2029       C  0.95630131  0.67328785  0.04556378    -0.54500
C2030       C  0.93835764  0.67465760  0.07517994     0.09600
H2031       H  0.97842547  0.58130804  0.04134648     0.14200
H2032       H  0.89644625  0.64014777  0.10586724    -0.00100
H2033       H  0.88896581  0.63487706  0.49691713     0.14500
H2034       H  0.97798560  0.69445599  0.03808674     0.14200
O2035       O  0.71216618  0.60006631  0.39194405    -0.58300
C2036       C  0.70435050  0.72366102  0.40560924     0.74400
O2037       O  0.64611778  0.65163750  0.46823334    -0.59400
C2038       C  0.70125095  0.57077561  0.40871099     0.74300
C2039       C  0.75101805  0.64440258  0.49190950     0.76700
Cd2040     Cd  0.70344312  0.64800583  0.43658751     1.37500
O2041       O  0.72662848  0.69541500  0.39851090    -0.58300
O2042       O  0.76667708  0.64607088  0.46376772    -0.57100
C2043       C  0.62781525  0.64525527  0.44217012     0.76700
O2044       O  0.71463479  0.64564600  0.49344832    -0.59400
O2045       O  0.68038483  0.71777756  0.42849200    -0.57900
O2046       O  0.69319694  0.57712985  0.43832676    -0.57900
O2047       O  0.64562147  0.64158542  0.41535117    -0.57100
O2048       O  0.99153740  0.58766082  0.39412686    -0.58300
C2049       C  0.51354383  0.71870315  0.40262434     0.74400
O2050       O  0.00378340  0.63408073  0.49183472    -0.59400
C2051       C  0.51256672  0.56198705  0.40399906     0.74300
C2052       C  0.58751606  0.64257733  0.44153003     0.76700
Cd2053     Cd  0.51270317  0.64055208  0.43391256     1.37500
O2054       O  0.99448721  0.68828359  0.39412875    -0.58300
O2055       O  0.57194679  0.63994552  0.41384830    -0.57100
C2056       C  0.96745156  0.63588795  0.49173804     0.76700
O2057       O  0.56707969  0.64290846  0.46742304    -0.59400
O2058       O  0.53603402  0.71128796  0.42569493    -0.57900
O2059       O  0.53802230  0.57036715  0.42448753    -0.57900
O2060       O  0.95166654  0.63788732  0.46399376    -0.57100
C2061       C  0.75104419  0.80689609  0.35960189     0.86000
C2062       C  0.71834440  0.81113175  0.33506206    -0.54200
C2063       C  0.68199815  0.80742023  0.34846915     0.09000
C2064       C  0.68192185  0.79744480  0.38514199     0.19900
C2065       C  0.74082179  0.83672391  0.38630978    -0.54900
C2066       C  0.70402559  0.83217840  0.39900106     0.09100
C2067       C  0.74467314  0.76772294  0.37548715    -0.54500
C2068       C  0.70963948  0.76175028  0.38893680     0.09600
H2069       H  0.72348681  0.81792838  0.30945757     0.14200
H2070       H  0.65274315  0.79317426  0.39603230    -0.00100
H2071       H  0.76033532  0.85948182  0.39408523     0.14500
H2072       H  0.76714418  0.74579807  0.37686620     0.14200
C2073       C  0.76807108  0.77634130  0.60724920     0.86000
C2074       C  0.79514535  0.76864534  0.63586878    -0.54200
C2075       C  0.79260837  0.73133513  0.64803153     0.09000
C2076       C  0.76057970  0.70668346  0.63226778     0.19900
C2077       C  0.77741859  0.74413117  0.58335478    -0.54900
C2078       C  0.77397198  0.70759999  0.59608455     0.09100
C2079       C  0.72799109  0.76780442  0.61973244    -0.54500
C2080       C  0.72282781  0.73259625  0.63386872     0.09600
H2081       H  0.81622066  0.78964903  0.64417360     0.14200
H2082       H  0.75737598  0.67701626  0.64278332    -0.00100
H2083       H  0.78655934  0.74955012  0.55826786     0.14500
H2084       H  0.70526609  0.78956704  0.61853632     0.14200
C2085       C  0.49809446  0.55481507  0.64291063     0.86000
C2086       C  0.98752045  0.58309306  0.61575664    -0.54200
C2087       C  0.95176313  0.57744708  0.60206840     0.09000
C2088       C  0.92965553  0.54233904  0.61670186     0.19900
C2089       C  0.96210374  0.55882984  0.66741157    -0.54900
C2090       C  0.92664965  0.55360473  0.65332626     0.09100
C2091       C  0.99268282  0.51468234  0.62927528    -0.54500
C2092       C  0.95883689  0.50704124  0.61464783     0.09600
H2093       H  0.50947433  0.60554496  0.60645648     0.14200
H2094       H  0.90139939  0.53688310  0.60511420    -0.00100
H2095       H  0.96537208  0.56662880  0.69287166     0.14500
H2096       H  0.51624654  0.99333056  0.62940929     0.14200
C2097       C  0.49818082  0.72541387  0.64076117     0.86000
C2098       C  0.96392610  0.71940222  0.66324893    -0.54200
C2099       C  0.92791486  0.72360524  0.64982391     0.09000
C2100       C  0.92990456  0.73557630  0.61319023     0.19900
C2101       C  0.98873972  0.69602352  0.61146359    -0.54900
C2102       C  0.95252306  0.70094813  0.59837362     0.09100
C2103       C  0.99280327  0.76438796  0.62442129    -0.54500
C2104       C  0.95835038  0.77177044  0.61078946     0.09600
H2105       H  0.96809022  0.71157896  0.68866530     0.14200
H2106       H  0.90125328  0.74046376  0.60209110    -0.00100
H2107       H  0.50822857  0.67470811  0.60437027     0.14500
H2108       H  0.51640880  0.78685202  0.62674837     0.14200
C2109       C  0.52373420  0.89147680  0.97646847     0.86000
C2110       C  0.51434845  0.85582339  0.95584290    -0.54200
C2111       C  0.53244180  0.85495684  0.92620260     0.09000
C2112       C  0.55951425  0.89066679  0.92010132     0.19900
C2113       C  0.56737696  0.89185832  0.97908847    -0.54900
C2114       C  0.58774493  0.89077400  0.95002841     0.09100
C2115       C  0.51406426  0.92637684  0.95496397    -0.54500
C2116       C  0.53175239  0.92635209  0.92518840     0.09600
H2117       H  0.99316661  0.83291147  0.96097622     0.14200
H2118       H  0.57389567  0.89021935  0.89585612    -0.00100
H2119       H  0.57815644  0.89567965  0.50239096     0.14500
H2120       H  0.99241807  0.94624442  0.95927792     0.14200
C2121       C  0.69510625  0.88721898  0.97693627     0.86000
C2122       C  0.70426387  0.92446053  0.95824241    -0.54200
C2123       C  0.68781888  0.92687694  0.92845183     0.10600
C2124       C  0.66145061  0.89168451  0.92056987     0.19900
C2125       C  0.65143949  0.88577693  0.97950137    -0.54900
C2126       C  0.63211364  0.88893255  0.95027052     0.09100
C2127       C  0.70622165  0.85437734  0.95419741    -0.54500
C2128       C  0.68958598  0.85661296  0.92455897     0.09600
H2129       H  0.72371155  0.94661325  0.96736621     0.14200
H2130       H  0.64800005  0.89359313  0.89627567    -0.00100
H2131       H  0.63608619  0.88444527  0.50292790     0.14500
H2132       H  0.72799209  0.83276210  0.96007317     0.14200
O2133       O  0.75236318  0.93331796  0.60663136    -0.58300
C2134       C  0.76823762  0.81585666  0.59229938     0.74400
O2135       O  0.75127588  0.89043983  0.50620052    -0.59400
C2136       C  0.76612770  0.96238574  0.59119558     0.74300
C2137       C  0.84020659  0.89008181  0.55491373     0.76700
Cd2138     Cd  0.76380199  0.88880311  0.56191382     1.37500
O2139       O  0.75420520  0.84481877  0.60740848    -0.58300
O2140       O  0.82265246  0.89142001  0.58190423    -0.57100
C2141       C  0.71501001  0.88814388  0.50799932     0.76700
O2142       O  0.82136330  0.88788665  0.52870166    -0.59400
O2143       O  0.77846368  0.82101867  0.56290004    -0.57900
O2144       O  0.77621923  0.95716187  0.56182629    -0.57900
O2145       O  0.69955460  0.88593232  0.53626324    -0.57100
O2146       O  0.97795244  0.94152145  0.60397847    -0.58300
C2147       C  0.95452085  0.81159636  0.59543932     0.74400
O2148       O  0.90161520  0.88833143  0.53029800    -0.59400
C2149       C  0.95515797  0.96936931  0.59707134     0.74300
C2150       C  0.50014294  0.89334265  0.50792447     0.76700
Cd2151     Cd  0.95571611  0.89123391  0.56517040     1.37500
O2152       O  0.97637199  0.83951309  0.60391440    -0.58300
O2153       O  0.51641161  0.89303306  0.53547819    -0.57100
C2154       C  0.88068649  0.89091221  0.55579071     0.76700
O2155       O  0.96604599  0.89430602  0.50691045    -0.59400
O2156       O  0.93222383  0.81952825  0.57231004    -0.57900
O2157       O  0.93155612  0.96206563  0.57477513    -0.57900
O2158       O  0.89591698  0.89399352  0.58355058    -0.57100
C2159       C  0.76640365  0.00198673  0.60586670     0.86000
C2160       C  0.77335183  0.53421086  0.58057529    -0.54200
C2161       C  0.77068141  0.57042952  0.59371502     0.09000
C2162       C  0.75909657  0.57049670  0.63038775     0.19900
C2163       C  0.79441743  0.50900823  0.63251234    -0.54900
C2164       C  0.79200373  0.54599050  0.64520659     0.09100
C2165       C  0.72643969  0.50918105  0.61884771    -0.54500
C2166       C  0.72173879  0.54416649  0.63315791     0.09600
H2167       H  0.78139798  0.52936526  0.55520206     0.14200
H2168       H  0.75605400  0.59990583  0.64119207    -0.00100
H2169       H  0.81582514  0.98848271  0.64182878     0.14500
H2170       H  0.70422189  0.98851107  0.61923011     0.14200
O2171       O  0.56449141  0.70077252  0.64942572    -0.58300
C2172       C  0.68488423  0.72708112  0.65146928     0.74400
O2173       O  0.61463666  0.74407409  0.74773318    -0.59400
C2174       C  0.53772194  0.72431092  0.65681887     0.74300
C2175       C  0.60945660  0.65985466  0.72194473     0.76700
Cd2176     Cd  0.61264437  0.72903892  0.69080112     1.37500
O2177       O  0.65922393  0.75353527  0.65047549    -0.58300
O2178       O  0.57890023  0.67638087  0.71285174    -0.57100
C2179       C  0.61480836  0.78063119  0.74599957     0.76700
O2180       O  0.64049840  0.67903797  0.72259774    -0.59400
O2181       O  0.67660482  0.69829594  0.66939233    -0.57900
O2182       O  0.54644653  0.74980391  0.67775153    -0.57900
O2183       O  0.61496794  0.79537494  0.71751399    -0.57100
O2184       O  0.66019184  0.52191283  0.65352845    -0.58300
C2185       C  0.53783684  0.55526104  0.65851952     0.74400
O2186       O  0.61807964  0.53625562  0.74778530    -0.59400
C2187       C  0.68445104  0.54966101  0.65143034     0.74300
C2188       C  0.61060796  0.61879246  0.72191056     0.76700
Cd2189     Cd  0.61334273  0.54979735  0.69110465     1.37500
O2190       O  0.56542245  0.57706270  0.64938816    -0.58300
O2191       O  0.57994701  0.60031620  0.71644361    -0.57100
C2192       C  0.61751286  0.00021913  0.74709079     0.76700
O2193       O  0.64268500  0.60169852  0.71884658    -0.59400
O2194       O  0.54605651  0.53053920  0.68039423    -0.57900
O2195       O  0.67510575  0.58032972  0.66631855    -0.57900
O2196       O  0.61607631  0.98533326  0.71884267    -0.57100
C2197       C  0.61613665  0.97734992  0.77822855     0.86000
C2198       C  0.64983486  0.98657074  0.80017180    -0.54200
C2199       C  0.64838384  0.96882890  0.82977798     0.09000
C2200       C  0.61217224  0.94158565  0.83441082     0.19900
C2201       C  0.61585052  0.93328297  0.77526094    -0.54900
C2202       C  0.61379216  0.91276352  0.80429866     0.09100
C2203       C  0.58006208  0.98730764  0.79798435    -0.54500
C2204       C  0.57703788  0.96935779  0.82747908     0.09600
H2205       H  0.67095004  0.50891976  0.79329916     0.14200
H2206       H  0.61043266  0.92709353  0.85851238    -0.00100
H2207       H  0.61766432  0.92057401  0.75136927     0.14500
H2208       H  0.55710723  0.50613538  0.78796229     0.14200
C2209       C  0.61457938  0.80348748  0.77720445     0.86000
C2210       C  0.58021994  0.79289175  0.79870024    -0.54200
C2211       C  0.57919343  0.81045895  0.82839661     0.09000
C2212       C  0.61417914  0.83851474  0.83375681     0.19900
C2213       C  0.61354529  0.84776955  0.77456672    -0.54900
C2214       C  0.61354733  0.86775664  0.80389926     0.09100
C2215       C  0.64962191  0.79440485  0.79748741    -0.54500
C2216       C  0.65012806  0.81200985  0.82706181     0.09600
H2217       H  0.55782656  0.77306195  0.79072874     0.14200
H2218       H  0.61416147  0.85287154  0.85789262    -0.00100
H2219       H  0.61274390  0.86092514  0.75071764     0.14500
H2220       H  0.67257769  0.77529079  0.78900050     0.14200
O2221       O  0.90354991  0.45195229  0.85146469    -0.58300
C2222       C  0.78308784  0.97954569  0.84923234     0.74400
O2223       O  0.84678295  0.49334983  0.75346215    -0.59400
C2224       C  0.93022643  0.97540214  0.84180123     0.74300
C2225       C  0.86191154  0.91236849  0.77631390     0.76700
Cd2226     Cd  0.85464317  0.97997250  0.80952312     1.37500
O2227       O  0.80972647  0.50589838  0.85022000    -0.58300
O2228       O  0.89107017  0.93047298  0.78625648    -0.57100
C2229       C  0.85030252  0.52973620  0.75412336     0.76700
O2230       O  0.82926810  0.92873127  0.77760069    -0.59400
O2231       O  0.79239876  0.94883569  0.83432479    -0.57900
O2232       O  0.92085146  0.00138599  0.82130390    -0.57900
O2233       O  0.85475769  0.54509161  0.78197522    -0.57100
O2234       O  0.92821440  0.78255168  0.81639185    -0.58300
C2235       C  0.79346060  0.81020947  0.84319834     0.74400
O2236       O  0.83397512  0.85171969  0.77163333    -0.59400
C2237       C  0.93557767  0.80654930  0.83882973     0.74300
C2238       C  0.85747718  0.74908645  0.75214845     0.76700
Cd2239     Cd  0.86301373  0.80333090  0.80415088     1.37500
O2240       O  0.81581033  0.78088634  0.84337321    -0.58300
O2241       O  0.85795876  0.73556762  0.78103104    -0.57100
C2242       C  0.86458071  0.87157718  0.77257218     0.76700
O2243       O  0.85850877  0.78551225  0.74900320    -0.59400
O2244       O  0.80499194  0.83910727  0.82675993    -0.57900
O2245       O  0.90859970  0.82951570  0.84672871    -0.57900
O2246       O  0.89598092  0.85514495  0.77977159    -0.57100
C2247       C  0.85123419  0.55181241  0.72249141     0.86000
C2248       C  0.88719883  0.54145600  0.70269999    -0.54200
C2249       C  0.89018525  0.55912374  0.67304223     0.09000
C2250       C  0.85530129  0.58687673  0.66593622     0.19900
C2251       C  0.85164322  0.59589341  0.72495645    -0.54900
C2252       C  0.85421958  0.61596796  0.69576026     0.09100
C2253       C  0.81745172  0.54234240  0.70059506    -0.54500
C2254       C  0.81897182  0.55985018  0.67083181     0.09600
H2255       H  0.90917170  0.52177911  0.71180678     0.14200
H2256       H  0.85715525  0.60113759  0.64170933    -0.00100
H2257       H  0.84973408  0.60902476  0.74875555     0.14500
H2258       H  0.79517659  0.52145339  0.70734228     0.14200
C2259       C  0.85667589  0.72519324  0.72179131     0.86000
C2260       C  0.82145748  0.73449605  0.70166574    -0.54200
C2261       C  0.82070702  0.71681238  0.67224769     0.09000
C2262       C  0.85643174  0.68978719  0.66562379     0.19900
C2263       C  0.85721575  0.68106847  0.72490336    -0.54900
C2264       C  0.85636369  0.66082159  0.69572678     0.09100
C2265       C  0.89120804  0.73509256  0.70021670    -0.54500
C2266       C  0.89222388  0.71741865  0.67072828     0.09600
H2267       H  0.79980550  0.75559136  0.70923570     0.14200
H2268       H  0.85618581  0.67545992  0.64150893    -0.00100
H2269       H  0.85817178  0.66820649  0.74891380     0.14500
H2270       H  0.91376360  0.75486535  0.70800176     0.14200
C2271       C  0.70162456  0.53070744  0.89435494     0.86000
C2272       C  0.67280220  0.52215805  0.86693104    -0.54200
C2273       C  0.67499979  0.98333223  0.85540869     0.09000
C2274       C  0.70813703  0.95955694  0.87063595     0.19900
C2275       C  0.69425040  0.49812323  0.91924355    -0.54900
C2276       C  0.69673124  0.96084374  0.90727964     0.09100
C2277       C  0.74086248  0.52225498  0.88013193    -0.54500
C2278       C  0.74546790  0.98580063  0.86703946     0.09600
H2279       H  0.65162766  0.54314880  0.85866570     0.14200
H2280       H  0.71119043  0.92974990  0.86057865    -0.00100
H2281       H  0.68638540  0.50359236  0.94454678     0.14500
H2282       H  0.76353141  0.54412714  0.88005030     0.14200
C2283       C  0.97039891  0.97570374  0.85664462     0.86000
C2284       C  0.50491864  0.97140870  0.83389696    -0.54200
C2285       C  0.54082457  0.97575142  0.84752044     0.09000
C2286       C  0.53865053  0.98725749  0.88406873     0.19900
C2287       C  0.97994076  0.94654606  0.88419590    -0.54900
C2288       C  0.51631801  0.95244617  0.89901452     0.09100
C2289       C  0.97543325  0.51546935  0.87410797    -0.54500
C2290       C  0.50933273  0.52166452  0.88675241     0.09600
H2291       H  0.99948664  0.96347001  0.80667835     0.14200
H2292       H  0.56722056  0.99233241  0.89523042    -0.00100
H2293       H  0.96000866  0.92427364  0.89262418     0.14500
H2294       H  0.95225568  0.53680486  0.87439685     0.14200
C2295       C  0.97382495  0.80449907  0.85596143     0.86000
C2296       C  0.98222946  0.83268353  0.88414292    -0.54200
C2297       C  0.51820599  0.82788884  0.90058026     0.09000
C2298       C  0.54147802  0.79341781  0.88591560     0.19900
C2299       C  0.50828049  0.80950356  0.83544995    -0.54900
C2300       C  0.54381471  0.80502310  0.84921099     0.09100
C2301       C  0.97752343  0.76434030  0.87061129    -0.54500
C2302       C  0.51331418  0.75708129  0.88777444     0.09600
H2303       H  0.96260715  0.85560021  0.89159492     0.14200
H2304       H  0.56998965  0.78869813  0.89730535    -0.00100
H2305       H  0.00545891  0.81724245  0.80743236     0.14500
H2306       H  0.95402988  0.74339327  0.86976323     0.14200
C2307       C  0.77310491  0.64172457  0.52287944     0.86000
C2308       C  0.76377378  0.67566806  0.54457253    -0.54200
C2309       C  0.78072417  0.67445655  0.57423382     0.09000
C2310       C  0.80716425  0.63850935  0.57938567     0.19900
C2311       C  0.81696922  0.64092292  0.52024227    -0.54900
C2312       C  0.83645977  0.63899071  0.54952569     0.09100
C2313       C  0.76220106  0.60616660  0.54280204    -0.54500
C2314       C  0.77904367  0.60431515  0.57260871     0.09600
H2315       H  0.74443578  0.69893031  0.53716154     0.14200
H2316       H  0.82088165  0.63723752  0.60360389    -0.00100
H2317       H  0.83222220  0.64337756  0.99815490     0.14500
H2318       H  0.74185373  0.58448299  0.53430608     0.14200
C2319       C  0.94524380  0.63651009  0.52349674     0.86000
C2320       C  0.95458186  0.60196825  0.54558178    -0.54200
C2321       C  0.93675687  0.60282731  0.57530963     0.09000
C2322       C  0.90934593  0.63875769  0.57974992     0.19900
C2323       C  0.90153421  0.63642448  0.52075655    -0.54900
C2324       C  0.88103460  0.63786675  0.54978450     0.09100
C2325       C  0.95489139  0.67244791  0.54353231    -0.54500
C2326       C  0.93700766  0.67403391  0.57315781     0.09600
H2327       H  0.97609877  0.58021195  0.53924576     0.14200
H2328       H  0.89496740  0.63973771  0.60398450    -0.00100
H2329       H  0.89075426  0.63483710  0.99883772     0.14500
H2330       H  0.97668888  0.69346128  0.53597446     0.14200
O2331       O  0.71374770  0.60051820  0.89145043    -0.58300
C2332       C  0.70848701  0.72446660  0.90561112     0.74400
O2333       O  0.64901865  0.64783900  0.96778624    -0.59400
C2334       C  0.70221448  0.57140231  0.90816666     0.74300
C2335       C  0.75309705  0.64530830  0.99287851     0.76700
Cd2336     Cd  0.70635496  0.64847088  0.93643759     1.37500
O2337       O  0.73215315  0.69690334  0.89998222    -0.58300
O2338       O  0.76905545  0.64437702  0.96483035    -0.57100
C2339       C  0.63072395  0.64394393  0.94136920     0.76700
O2340       O  0.71682537  0.64884356  0.99389963    -0.59400
O2341       O  0.68278863  0.71780391  0.92696484    -0.57900
O2342       O  0.69474760  0.57779872  0.93785904    -0.57900
O2343       O  0.64836112  0.64469363  0.91426553    -0.57100
O2344       O  0.99087906  0.58891345  0.89726403    -0.58300
C2345       C  0.51738499  0.71735904  0.90294432     0.74400
O2346       O  0.00557916  0.63639011  0.99342484    -0.59400
C2347       C  0.51393222  0.56059229  0.90274143     0.74300
C2348       C  0.59058565  0.63934978  0.94086604     0.76700
Cd2349     Cd  0.51564872  0.63847423  0.93366596     1.37500
O2350       O  0.98972844  0.69069238  0.89686756    -0.58300
O2351       O  0.57515350  0.63252721  0.91364777    -0.57100
C2352       C  0.96919043  0.63700929  0.99364497     0.76700
O2353       O  0.57005612  0.64313155  0.96646207    -0.59400
O2354       O  0.54057315  0.70930062  0.92537495    -0.57900
O2355       O  0.53769911  0.56740600  0.92503004    -0.57900
O2356       O  0.95312203  0.63843439  0.96603139    -0.57100
C2357       C  0.75375788  0.80846305  0.85900781     0.86000
C2358       C  0.72109708  0.81144936  0.83432972    -0.54200
C2359       C  0.68482059  0.80691371  0.84754535     0.09000
C2360       C  0.68479630  0.79736429  0.88431681     0.19900
C2361       C  0.74261797  0.83833862  0.88542053    -0.54900
C2362       C  0.70590758  0.83276857  0.89804847     0.09100
C2363       C  0.74844267  0.76932565  0.87541436    -0.54500
C2364       C  0.71341979  0.76253043  0.88869639     0.09600
H2365       H  0.72620323  0.81826580  0.80872370     0.14200
H2366       H  0.65567539  0.79244656  0.89512302    -0.00100
H2367       H  0.76154860  0.86155323  0.89329162     0.14500
H2368       H  0.77154784  0.74813569  0.87723792     0.14200
loop_ 
_geom_bond_atom_site_label_1 
_geom_bond_atom_site_label_2 
_geom_bond_distance 
_geom_bond_site_symmetry_2 
_ccdc_geom_bond_type 
C1            C2   1.535       .  S
C1            C7   1.503       .  S
C1            C5   1.513       .  S
C1           C62   1.488       .  S
C2            H9   1.086       .  S
C2            C3   1.377       .  D
C3            C4   1.548       .  S
C3          C189   1.488       .  S
C4            C8   1.586       .  S
C4            C6   1.551       .  S
C4           H10   1.110       .  S
C5           H11   1.087       .  S
C5            C6   1.361       .  D
C6          C237   1.469       .  S
C7           H12   1.088       .  S
C7            C8   1.350       .  D
C8          C100   1.505       .  S
C13        C1198   1.546       .  S
C13        C1203   1.510       .  S
C13        C1201   1.537       .  S
C13         C113   1.524   1_655  S
C14        C1197   1.542       .  S
C14        H1205   1.085       .  S
C14          C15   1.379       .  D
C15          C16   1.550       .  S
C15         C249   1.496       .  S
C16          C20   1.584       .  S
C16          C18   1.554       .  S
C16          H22   1.111       .  S
C17        C1197   1.543       .  S
C17          H23   1.086       .  S
C17          C18   1.381       .  D
C18         C177   1.511       .  S
C19        C1197   1.507       .  S
C19        H1800   1.089   1_545  S
C19          C20   1.349       .  D
C20         C669   1.505   1_545  S
H21        C1198   1.084   1_455  S
H24        C1795   1.088   1_455  S
C25        C1210   1.538   1_455  S
C25        C1215   1.508   1_455  S
C25        C1213   1.543   1_455  S
C25         C102   1.525       .  S
C26        C1209   1.539       .  S
C26          H33   1.087       .  S
C26          C27   1.377       .  D
C27          C28   1.552       .  S
C27         C194   1.505       .  S
C28          C32   1.585       .  S
C28          C30   1.545       .  S
C28          H34   1.111       .  S
C29        C1209   1.544       .  S
C29        H1219   1.085       .  S
C29          C30   1.383       .  D
C30         C254   1.498       .  S
C31        C1209   1.507       .  S
C31        H1220   1.088       .  S
C31          C32   1.351       .  D
C32          C75   1.505       .  S
H35        C1213   1.084   1_455  S
H36        C1215   1.089   1_455  S
C37          C38   1.528       .  S
C37          C43   1.524       .  S
C37          C41   1.520       .  S
C37         C374   1.506       .  S
C38        H1229   1.087   1_455  S
C38          C39   1.361       .  D
C39          C40   1.565       .  S
C39         C225   1.493       .  S
C40          C44   1.570       .  S
C40          C42   1.582       .  S
C40          H46   1.106       .  S
C41         H343   1.077       .  S
C41          C42   1.379       .  D
C42          C54   1.548       .  S
C43        H1232   1.087   1_455  S
C43          C44   1.358       .  D
C44         C216   1.495       .  S
H45        C1222   1.087       .  S
H47         C337   1.078   1_554  S
H48        C1227   1.087       .  S
C49          C50   1.515       .  S
C49          C55   1.517       .  S
C49          C53   1.521       .  S
C49         C365   1.489       .  S
C50          H57   1.088       .  S
C50          C51   1.354       .  D
C51          C52   1.561       .  S
C51         C204   1.485       .  S
C52          C56   1.564       .  S
C52          C54   1.582       .  S
C52          H58   1.107       .  S
C53         H355   1.078       .  S
C53          C54   1.385       .  D
C55          H60   1.088       .  S
C55          C56   1.355       .  D
C56         C290   1.476       .  S
H59         C349   1.079   1_554  S
O61          C64   1.270       .  A
O61         Cd66   2.408       .  S
C62          O71   1.264       .  A
C62          O67   1.271       .  A
O63          C69   1.262       .  A
O63         Cd66   2.339       .  S
C64          C87   1.489       .  S
C64          O72   1.263       .  A
C65          O70   1.267       .  A
C65          O68   1.259       .  A
C65          C82   1.404       .  S
Cd66         O73   2.466       .  S
Cd66         O72   2.393       .  S
Cd66         O71   2.381       .  S
Cd66         O67   2.413       .  S
Cd66         O70   2.377       .  S
Cd66         O68   2.220       .  S
C69         C345   1.486   1_554  S
C69          O73   1.272       .  A
O74          C77   1.274       .  A
O74         Cd79   2.470       .  S
C75          O84   1.259       .  A
C75          O80   1.274       .  A
O76          C82   1.269       .  A
O76         Cd79   2.358       .  S
C77         C612   1.503       .  S
C77          O85   1.258       .  A
C78         C333   1.505   1_554  S
C78          O81   1.270       .  A
C78        O1267   1.261   1_455  A
Cd79         O86   2.215       .  S
Cd79         O85   2.593       .  S
Cd79         O84   2.595       .  S
Cd79         O80   2.478       .  S
Cd79         O83   2.435       .  S
Cd79       O1265   2.497       .  S
O81       Cd1263   2.494   1_455  S
C82          O86   1.266       .  A
O83        C1262   1.262       .  A
C87         C680   1.518       .  S
C87         C685   1.503       .  S
C87         C683   1.538       .  S
C88         C679   1.516       .  S
C88          H95   1.087       .  S
C88          C89   1.362       .  D
C89          C90   1.553       .  S
C89         C242   1.473       .  S
C90          C94   1.586       .  S
C90          C92   1.548       .  S
C90          H96   1.110       .  S
C91         C679   1.538       .  S
C91         H689   1.086   1_545  S
C91          C92   1.376       .  D
C92         C182   1.492       .  S
C93         C679   1.502       .  S
C93         H690   1.088   1_545  S
C93          C94   1.351       .  D
C94         C115   1.503       .  S
H97         C683   1.086       .  S
H98         C685   1.088       .  S
O99         C102   1.267       .  A
O99        Cd104   2.575       .  S
C100        O109   1.261       .  A
C100        O105   1.274       .  A
O101        C107   1.258       .  A
O101       Cd104   2.375       .  S
C102        O110   1.267       .  A
C103        O108   1.264       .  A
C103        O106   1.262       .  A
C103        C116   1.413       .  S
Cd104       O111   2.527       .  S
Cd104       O110   2.455       .  S
Cd104       O109   2.609       .  S
Cd104       O105   2.425       .  S
Cd104       O108   2.346       .  S
Cd104       O106   2.344       .  S
C107        C137   1.499       .  S
C107        O111   1.270       .  A
O112        C115   1.273       .  A
O112       Cd117   2.427       .  S
C113        O122   1.267       .  A
C113        O118   1.268       .  A
O114        C712   1.258   1_545  A
O114       Cd117   2.370       .  S
C115        O123   1.261       .  A
C116        O121   1.263       .  A
C116        O119   1.262       .  A
Cd117       O123   2.595       .  S
Cd117       O122   2.469       .  S
Cd117       O118   2.565       .  S
Cd117       O121   2.352       .  S
Cd117       O119   2.349       .  S
Cd117       O716   2.525   1_545  S
C120        C125   1.492       .  S
C120        O124   1.271       .  A
C120        O706   1.256       .  A
O124       Cd709   2.512       .  S
C125        C126   1.516       .  S
C125        C131   1.525       .  S
C125        C129   1.516       .  S
C126        H725   1.088       .  S
C126        C127   1.353       .  D
C127        C128   1.578       .  S
C127        C201   1.494       .  S
C128        C132   1.571       .  S
C128        C130   1.587       .  S
C128        H134   1.106       .  S
C129        H135   1.078       .  S
C129        C130   1.381       .  D
C130        C142   1.544       .  S
C131        H728   1.088       .  S
C131        C132   1.358       .  D
C132        C213   1.506       .  S
H133        C718   1.087   1_545  S
H136        C723   1.088   1_545  S
C137        C138   1.516       .  S
C137        C143   1.512       .  S
C137        C141   1.523       .  S
C138        H145   1.088       .  S
C138        C139   1.360       .  D
C139        C140   1.572       .  S
C139        C228   1.498       .  S
C140        C144   1.566       .  S
C140        C142   1.580       .  S
C140        H146   1.107       .  S
C141        H147   1.077       .  S
C141        C142   1.386       .  D
C143        H148   1.088       .  S
C143        C144   1.357       .  D
C144        C287   1.487       .  S
O149        C744   1.268       .  A
O149       Cd746   2.574       .  S
C150        C206   1.505       .  S
C150        O159   1.262       .  A
C150        O747   1.273       .  A
O151        C157   1.259   1_565  A
O151       Cd746   2.396       .  S
C152        C211   1.528       .  S
C152        O160   1.269       .  A
C152        O741   1.268       .  A
C153        O158   1.265       .  A
C153        O156   1.261       .  A
C153        C170   1.415       .  S
Cd154       O160   2.464       .  S
Cd154       O159   2.598       .  S
Cd154       O158   2.361       .  S
Cd154       O156   2.345       .  S
Cd154       O741   2.577       .  S
Cd154       O743   2.387       .  S
Cd154       O753   2.511       .  S
Cd154       O747   2.439       .  S
O155        C742   1.271   1_545  A
O155       Cd746   2.425   1_545  S
C157        C175   1.499       .  S
C157        O161   1.270       .  A
O161       Cd746   2.504   1_545  S
O162        C165   1.267       .  A
O162       Cd167   2.420       .  S
C163        C285   1.515       .  S
C163        O172   1.260       .  A
C163        O168   1.271       .  A
O164        C170   1.263       .  A
O164       Cd167   2.347       .  S
C165        C223   1.507       .  S
C165        O173   1.265       .  A
C166        C187   1.489       .  S
C166        O171   1.258       .  A
C166        O169   1.269       .  A
Cd167       O174   2.342       .  S
Cd167       O173   2.525       .  S
Cd167       O172   2.524       .  S
Cd167       O168   2.396       .  S
Cd167       O171   2.343       .  S
Cd167       O169   2.511       .  S
C170        O174   1.265       .  A
C175        C176   1.525       .  S
C175        C181   1.519       .  S
C175        C179   1.520       .  S
C176        H183   1.087       .  S
C176        C177   1.359       .  D
C177        C178   1.573       .  S
C178        C182   1.575       .  S
C178        C180   1.578       .  S
C178        H184   1.106       .  S
C179        H185   1.083       .  S
C179        C180   1.381       .  D
C180        C192   1.537       .  S
C181        H186   1.087       .  S
C181        C182   1.356       .  D
C187        C188   1.517       .  S
C187        C193   1.516       .  S
C187        C191   1.520       .  S
C188        H195   1.088       .  S
C188        C189   1.354       .  D
C189        C190   1.572       .  S
C190        C194   1.576       .  S
C190        C192   1.580       .  S
C190        H196   1.106       .  S
C191        H197   1.082       .  S
C191        C192   1.384       .  D
C193        H198   1.088       .  S
C193        C194   1.354       .  D
C199        C200   1.543       .  S
C199        C205   1.505       .  S
C199        C203   1.528   1_545  S
C199        C262   1.511       .  S
C200        H207   1.086       .  S
C200        C793   1.381   1_545  D
C201        C202   1.545       .  S
C201        C792   1.381       .  D
C202        C206   1.584       .  S
C202        C204   1.546       .  S
C202        H208   1.111       .  S
C203        H209   1.087   1_565  S
C203        C796   1.368       .  D
C204        C795   1.371       .  D
C205        H210   1.088       .  S
C205        C798   1.353   1_545  D
C206        C797   1.352       .  D
C211        C215   1.545       .  S
C211       C1396   1.540       .  S
C211        C809   1.506       .  S
C212       C1395   1.542   1_455  S
C212       H1403   1.086   1_455  S
C212        C213   1.379       .  D
C213        C214   1.550       .  S
C214        C216   1.543       .  S
C214        C810   1.581       .  S
C214        H220   1.111       .  S
C215        H221   1.084       .  S
C215       C1400   1.383       .  D
C216       C1399   1.382   1_455  D
C217        C803   1.509   1_545  S
C217        H222   1.088       .  S
C217       C1402   1.351       .  D
C218        C806   1.585   1_545  S
C218       C1401   1.351   1_455  D
C218        C275   1.505       .  S
H219       C1396   1.086       .  S
C223        C224   1.540       .  S
C223        C229   1.508       .  S
C223       C1411   1.526       .  S
C224        H231   1.084       .  S
C224       C1409   1.379       .  D
C225        C226   1.546       .  S
C225       C1408   1.380   1_455  D
C226        C230   1.582       .  S
C226        C228   1.554       .  S
C226        H232   1.110       .  S
C227       C1407   1.528   1_455  S
C227       H1417   1.087       .  S
C227        C228   1.373       .  D
C229        H234   1.089       .  S
C229       C1414   1.350       .  D
C230       C1413   1.349   1_455  D
C230        C273   1.498       .  S
H233       C1411   1.087       .  S
C235        C236   1.505       .  S
C235        C241   1.511       .  S
C235        C239   1.521       .  S
C235        C559   1.493   1_554  S
C236        H243   1.088       .  S
C236        C237   1.359       .  D
C237        C238   1.552       .  S
C238        C242   1.555       .  S
C238        C240   1.582       .  S
C238        H244   1.106       .  S
C239        H541   1.074   1_554  S
C239        C240   1.386       .  D
C240        C252   1.546       .  S
C241        H246   1.088       .  S
C241        C242   1.361       .  D
H245        C535   1.080       .  S
C247        C248   1.527       .  S
C247        C253   1.526       .  S
C247        C251   1.519       .  S
C247        C576   1.505   1_554  S
C248        H255   1.087       .  S
C248        C249   1.362       .  D
C249        C250   1.568       .  S
C250        C254   1.570       .  S
C250        C252   1.581       .  S
C250        H256   1.107       .  S
C251        H553   1.075   1_554  S
C251        C252   1.379       .  D
C253        H258   1.087       .  S
C253        C254   1.359       .  D
H257        C547   1.079       .  S
O259        C262   1.270       .  A
O259       Cd264   2.494       .  S
C260        C292   1.486       .  S
C260        O269   1.261       .  A
C260        O265   1.275       .  A
O261        C267   1.268       .  A
O261       Cd264   2.383       .  S
C262        O270   1.262       .  A
C263        C531   1.497       .  S
C263        O268   1.264       .  A
C263        O266   1.271       .  A
Cd264       O271   2.204       .  S
Cd264       O270   2.459       .  S
Cd264       O269   2.540       .  S
Cd264       O265   2.398       .  S
Cd264       O268   2.371       .  S
Cd264       O266   2.489       .  S
C267        O271   1.261       .  A
C267        C276   1.405       .  S
O272       C1459   1.274       .  A
O272      Cd1461   2.471       .  S
C273        O282   1.259       .  A
C273       O1462   1.274   1_455  A
O274        C280   1.261       .  A
O274      Cd1461   2.428       .  S
C275        O283   1.259       .  A
C275       O1456   1.273   1_455  A
C276        O281   1.270       .  A
C276        O279   1.265       .  A
Cd277       O283   2.601       .  S
Cd277       O282   2.585       .  S
Cd277       O281   2.370       .  S
Cd277       O279   2.199       .  S
Cd277      O1456   2.458   1_455  S
Cd277      O1458   2.423       .  S
Cd277      O1468   2.485   1_455  S
Cd277      O1462   2.460   1_455  S
O278       C1457   1.273       .  A
O278      Cd1461   2.479       .  S
C280        C543   1.503       .  S
C280        O284   1.270       .  A
O284      Cd1461   2.482       .  S
C285        C286   1.530       .  S
C285        C291   1.510       .  S
C285        C289   1.541       .  S
C286        H293   1.087       .  S
C286        C287   1.374       .  D
C287        C288   1.544       .  S
C288        C292   1.569       .  S
C288        C290   1.535       .  S
C288        H294   1.111       .  S
C289        H295   1.086       .  S
C289        C290   1.381       .  D
C291        H296   1.086       .  S
C291        C292   1.344       .  D
C297        C298   1.535       .  S
C297        C303   1.499       .  S
C297        C301   1.516       .  S
C297        C358   1.488       .  S
C298        H305   1.086       .  S
C298        C299   1.378       .  D
C299        C300   1.551       .  S
C299        C485   1.489       .  S
C300        C304   1.590       .  S
C300        C302   1.551       .  S
C300        H306   1.110       .  S
C301        H307   1.087       .  S
C301        C302   1.362       .  D
C302        C533   1.478       .  S
C303        H308   1.088       .  S
C303        C304   1.350       .  D
C304        C396   1.507       .  S
C309       C1494   1.543       .  S
C309       C1499   1.508       .  S
C309       C1497   1.541       .  S
C309        C409   1.526   1_655  S
C310       C1493   1.544       .  S
C310       H1501   1.084       .  S
C310        C311   1.381       .  D
C311        C312   1.545       .  S
C311        C545   1.495       .  S
C312        C316   1.583       .  S
C312        C314   1.553       .  S
C312        H318   1.111       .  S
C313       C1493   1.540       .  S
C313        H319   1.086       .  S
C313        C314   1.379       .  D
C314        C473   1.507       .  S
C315       C1493   1.507       .  S
C315       H2096   1.089   1_545  S
C315        C316   1.350       .  D
C316        C965   1.502   1_545  S
H317       C1494   1.084   1_455  S
H320       C2091   1.088   1_455  S
C321       C1506   1.537       .  S
C321       C1511   1.509       .  S
C321       C1509   1.545       .  S
C321        C398   1.528   1_655  S
C322       C1505   1.534       .  S
C322        H329   1.086       .  S
C322        C323   1.377       .  D
C323        C324   1.549       .  S
C323        C490   1.501       .  S
C324        C328   1.582       .  S
C324        C326   1.543       .  S
C324        H330   1.111       .  S
C325       C1505   1.544       .  S
C325       H1515   1.084       .  S
C325        C326   1.383       .  D
C326        C550   1.494       .  S
C327       C1505   1.510       .  S
C327       H1516   1.088       .  S
C327        C328   1.349       .  D
C328        C371   1.504       .  S
H331       C1509   1.084   1_455  S
H332       C1511   1.088   1_455  S
C333        C334   1.529       .  S
C333        C339   1.523       .  S
C333        C337   1.520       .  S
C334       H1525   1.087   1_455  S
C334        C335   1.361       .  D
C335        C336   1.564       .  S
C335        C521   1.495       .  S
C336        C340   1.571       .  S
C336        C338   1.578       .  S
C336        H342   1.107       .  S
C337        C338   1.380       .  D
C338        C350   1.544       .  S
C339       H1528   1.087   1_455  S
C339        C340   1.358       .  D
C340        C512   1.495       .  S
H341       C1518   1.087       .  S
H344       C1523   1.087       .  S
C345        C346   1.518       .  S
C345        C351   1.516       .  S
C345        C349   1.517       .  S
C346        H353   1.088       .  S
C346        C347   1.356       .  D
C347        C348   1.556       .  S
C347        C500   1.484       .  S
C348        C352   1.563       .  S
C348        C350   1.583       .  S
C348        H354   1.106       .  S
C349        C350   1.382       .  D
C351        H356   1.088       .  S
C351        C352   1.354       .  D
C352        C586   1.475       .  S
O357        C360   1.273       .  A
O357       Cd362   2.380       .  S
C358        O367   1.263       .  A
C358        O363   1.269       .  A
O359        C365   1.264       .  A
O359       Cd362   2.353       .  S
C360        C383   1.491       .  S
C360        O368   1.260       .  A
C361        O366   1.270       .  A
C361        O364   1.260       .  A
C361        C378   1.405       .  S
Cd362       O369   2.469       .  S
Cd362       O368   2.423       .  S
Cd362       O367   2.366       .  S
Cd362       O363   2.440       .  S
Cd362       O366   2.380       .  S
Cd362       O364   2.225       .  S
C365        O369   1.270       .  A
O370        C373   1.274       .  A
O370       Cd375   2.469       .  S
C371        O380   1.260       .  A
C371        O376   1.274       .  A
O372        C378   1.268       .  A
O372       Cd375   2.359       .  S
C373        C908   1.506       .  S
C373        O381   1.259       .  A
C374       O1563   1.261   1_455  A
C374        O377   1.269       .  A
Cd375       O382   2.222       .  S
Cd375       O381   2.604       .  S
Cd375       O380   2.588       .  S
Cd375       O376   2.490       .  S
Cd375       O379   2.433       .  S
Cd375      O1561   2.495       .  S
O377      Cd1559   2.491   1_455  S
C378        O382   1.265       .  A
O379       C1558   1.261       .  A
C383        C976   1.514       .  S
C383        C981   1.503       .  S
C383        C979   1.537       .  S
C384        C975   1.519       .  S
C384        H391   1.087       .  S
C384        C385   1.364       .  D
C385        C386   1.550       .  S
C385        C538   1.476       .  S
C386        C390   1.585       .  S
C386        C388   1.548       .  S
C386        H392   1.110       .  S
C387        C975   1.537       .  S
C387        H985   1.086   1_545  S
C387        C388   1.376       .  D
C388        C478   1.489       .  S
C389        C975   1.502       .  S
C389        H986   1.088   1_545  S
C389        C390   1.348       .  D
C390        C411   1.502       .  S
H393        C979   1.086       .  S
H394        C981   1.086       .  S
O395        C398   1.268       .  A
O395       Cd400   2.592       .  S
C396        O405   1.261       .  A
C396        O401   1.275       .  A
O397        C403   1.258       .  A
O397       Cd400   2.387       .  S
C398        O406   1.266       .  A
C399        O404   1.263       .  A
C399        O402   1.262       .  A
C399        C412   1.412       .  S
Cd400       O407   2.534       .  S
Cd400       O406   2.467       .  S
Cd400       O405   2.607       .  S
Cd400       O401   2.440       .  S
Cd400       O404   2.359       .  S
Cd400       O402   2.334       .  S
C403        C433   1.502       .  S
C403        O407   1.270       .  A
O408        C411   1.274       .  A
O408       Cd413   2.433       .  S
C409        O418   1.267       .  A
C409        O414   1.268       .  A
O410       C1008   1.257   1_545  A
O410       Cd413   2.364       .  S
C411        O419   1.260       .  A
C412        O417   1.263       .  A
C412        O415   1.262       .  A
Cd413      O1012   2.508   1_545  S
Cd413       O419   2.586       .  S
Cd413       O418   2.471       .  S
Cd413       O414   2.570       .  S
Cd413       O417   2.356       .  S
Cd413       O415   2.330       .  S
C416        C421   1.493       .  S
C416       O1002   1.258       .  A
C416        O420   1.270       .  A
O420      Cd1005   2.509       .  S
C421        C422   1.517       .  S
C421        C427   1.522       .  S
C421        C425   1.520       .  S
C422       H1021   1.088       .  S
C422        C423   1.355       .  D
C423        C424   1.576       .  S
C423        C497   1.493       .  S
C424        C428   1.572       .  S
C424        C426   1.585       .  S
C424        H430   1.106       .  S
C425        H431   1.080       .  S
C425        C426   1.382       .  D
C426        C438   1.545       .  S
C427       H1024   1.088       .  S
C427        C428   1.357       .  D
C428        C509   1.505       .  S
H429       C1014   1.087   1_545  S
H432       C1019   1.088   1_545  S
C433        C434   1.518       .  S
C433        C439   1.511       .  S
C433        C437   1.524       .  S
C434        H441   1.088       .  S
C434        C435   1.362       .  D
C435        C436   1.571       .  S
C435        C524   1.502       .  S
C436        C440   1.567       .  S
C436        C438   1.581       .  S
C436        H442   1.107       .  S
C437        H443   1.079       .  S
C437        C438   1.386       .  D
C439        H444   1.088       .  S
C439        C440   1.355       .  D
C440        C583   1.484       .  S
O445       C1040   1.268       .  A
O445      Cd1042   2.584       .  S
C446        C502   1.507       .  S
C446        O455   1.263       .  A
C446       O1043   1.272       .  A
O447        C453   1.259   1_565  A
O447      Cd1042   2.393       .  S
C448        C507   1.531       .  S
C448       O1037   1.268       .  A
C448        O456   1.269       .  A
C449        O454   1.265       .  A
C449        O452   1.261       .  A
C449        C466   1.412       .  S
Cd450      O1037   2.580       .  S
Cd450      O1039   2.392       .  S
Cd450      O1049   2.513       .  S
Cd450       O456   2.471       .  S
Cd450       O455   2.614       .  S
Cd450      O1043   2.438       .  S
Cd450       O454   2.358       .  S
Cd450       O452   2.337       .  S
O451       C1038   1.272   1_545  A
O451      Cd1042   2.426   1_545  S
C453        C471   1.497       .  S
C453        O457   1.269       .  A
O457      Cd1042   2.506   1_545  S
O458        C461   1.266       .  A
O458       Cd463   2.401       .  S
C459        C581   1.517       .  S
C459        O468   1.260       .  A
C459        O464   1.272       .  A
O460        C466   1.263       .  A
O460       Cd463   2.343       .  S
C461        C519   1.503       .  S
C461        O469   1.265       .  A
C462        C483   1.489       .  S
C462        O467   1.258       .  A
C462        O465   1.270       .  A
Cd463       O470   2.336       .  S
Cd463       O469   2.529       .  S
Cd463       O468   2.527       .  S
Cd463       O464   2.392       .  S
Cd463       O467   2.330       .  S
Cd463       O465   2.516       .  S
C466        O470   1.265       .  A
C471        C472   1.523       .  S
C471        C477   1.518       .  S
C471        C475   1.520       .  S
C472        H479   1.087       .  S
C472        C473   1.357       .  D
C473        C474   1.573       .  S
C474        C478   1.573       .  S
C474        C476   1.581       .  S
C474        H480   1.106       .  S
C475        H481   1.078       .  S
C475        C476   1.381       .  D
C476        C488   1.539       .  S
C477        H482   1.087       .  S
C477        C478   1.356       .  D
C483        C484   1.517       .  S
C483        C489   1.515       .  S
C483        C487   1.521       .  S
C484        H491   1.088       .  S
C484        C485   1.354       .  D
C485        C486   1.572       .  S
C486        C490   1.575       .  S
C486        C488   1.579       .  S
C486        H492   1.106       .  S
C487        H493   1.077       .  S
C487        C488   1.386       .  D
C489        H494   1.088       .  S
C489        C490   1.353       .  D
C495        C496   1.544       .  S
C495        C501   1.503       .  S
C495        C499   1.531   1_545  S
C495        C558   1.516       .  S
C496        H503   1.086       .  S
C496       C1089   1.382   1_545  D
C497        C498   1.546       .  S
C497       C1088   1.379       .  D
C498        C502   1.584       .  S
C498        C500   1.550       .  S
C498        H504   1.111       .  S
C499        H505   1.086   1_565  S
C499       C1092   1.371       .  D
C500       C1091   1.370       .  D
C501        H506   1.088       .  S
C501       C1094   1.352   1_545  D
C502       C1093   1.353       .  D
C507       C1692   1.543       .  S
C507       C1105   1.507       .  S
C507        C511   1.545       .  S
C508       C1691   1.539   1_455  S
C508       H1699   1.086   1_455  S
C508        C509   1.378       .  D
C509        C510   1.550       .  S
C510       C1106   1.582       .  S
C510        C512   1.545       .  S
C510        H516   1.111       .  S
C511        H517   1.084       .  S
C511       C1696   1.383       .  D
C512       C1695   1.383   1_455  D
C513       C1099   1.505   1_545  S
C513        H518   1.089       .  S
C513       C1698   1.349       .  D
C514       C1102   1.582   1_545  S
C514       C1697   1.350   1_455  D
C514        C571   1.504       .  S
H515       C1692   1.085       .  S
C519        C520   1.538       .  S
C519        C525   1.507       .  S
C519       C1707   1.528       .  S
C520        H527   1.084       .  S
C520       C1705   1.378       .  D
C521        C522   1.551       .  S
C521       C1704   1.379   1_455  D
C522        C526   1.587       .  S
C522        C524   1.557       .  S
C522        H528   1.110       .  S
C523       C1703   1.527   1_455  S
C523       H1713   1.087       .  S
C523        C524   1.370       .  D
C525        H530   1.089       .  S
C525       C1710   1.349       .  D
C526       C1709   1.351   1_455  D
C526        C569   1.508       .  S
H529       C1707   1.087       .  S
C531        C532   1.507       .  S
C531        C537   1.511       .  S
C531        C535   1.522       .  S
C532        H539   1.088       .  S
C532        C533   1.360       .  D
C533        C534   1.557       .  S
C534        C538   1.559       .  S
C534        C536   1.586       .  S
C534        H540   1.107       .  S
C535        C536   1.386       .  D
C536        C548   1.553       .  S
C537        H542   1.088       .  S
C537        C538   1.360       .  D
C543        C544   1.526       .  S
C543        C549   1.525       .  S
C543        C547   1.520       .  S
C544        H551   1.087       .  S
C544        C545   1.360       .  D
C545        C546   1.569       .  S
C546        C550   1.569       .  S
C546        C548   1.585       .  S
C546        H552   1.106       .  S
C547        C548   1.379       .  D
C549        H554   1.087       .  S
C549        C550   1.358       .  D
O555        C558   1.272       .  A
O555       Cd560   2.504       .  S
C556        C588   1.486       .  S
C556        O565   1.261       .  A
C556        O561   1.274       .  A
O557        C563   1.269       .  A
O557       Cd560   2.389       .  S
C558        O566   1.262       .  A
C559        O564   1.263       .  A
C559        O562   1.270       .  A
Cd560       O567   2.197       .  S
Cd560       O566   2.466       .  S
Cd560       O565   2.543       .  S
Cd560       O561   2.403       .  S
Cd560       O564   2.366       .  S
Cd560       O562   2.480       .  S
C563        O567   1.261       .  A
C563        C572   1.406       .  S
O568       C1755   1.275       .  A
O568      Cd1757   2.456       .  S
C569        O578   1.260       .  A
C569       O1758   1.274   1_455  A
O570        C576   1.261       .  A
O570      Cd1757   2.428       .  S
C571       O1752   1.273   1_455  A
C571        O579   1.260       .  A
C572        O577   1.269       .  A
C572        O575   1.264       .  A
Cd573      O1752   2.474   1_455  S
Cd573      O1754   2.427       .  S
Cd573      O1764   2.485   1_455  S
Cd573       O579   2.597       .  S
Cd573       O578   2.603       .  S
Cd573      O1758   2.490   1_455  S
Cd573       O577   2.382       .  S
Cd573       O575   2.203       .  S
O574       C1753   1.274       .  A
O574      Cd1757   2.473       .  S
C576        O580   1.270       .  A
O580      Cd1757   2.484       .  S
C581        C582   1.531       .  S
C581        C587   1.512       .  S
C581        C585   1.543       .  S
C582        H589   1.087       .  S
C582        C583   1.374       .  D
C583        C584   1.540       .  S
C584        C588   1.566       .  S
C584        C586   1.532       .  S
C584        H590   1.111       .  S
C585        H591   1.086       .  S
C585        C586   1.383       .  D
C587        H592   1.086       .  S
C587        C588   1.344       .  D
C593        C594   1.534       .  S
C593        C599   1.502       .  S
C593        C597   1.515       .  S
C593        C654   1.492       .  S
C594        H601   1.086       .  S
C594        C595   1.377       .  D
C595        C596   1.550       .  S
C595        C781   1.488       .  S
C596        C600   1.590       .  S
C596        C598   1.552       .  S
C596        H602   1.110       .  S
C597        H603   1.087       .  S
C597        C598   1.362       .  D
C598        C829   1.476       .  S
C599        H604   1.088       .  S
C599        C600   1.351       .  D
C600        C692   1.509       .  S
C605       C1790   1.544       .  S
C605       C1795   1.510       .  S
C605       C1793   1.541       .  S
C605        C705   1.528   1_655  S
C606       C1789   1.544       .  S
C606       H1797   1.084       .  S
C606        C607   1.381       .  D
C607        C608   1.546       .  S
C607        C841   1.496       .  S
C608        C612   1.582       .  S
C608        C610   1.553       .  S
C608        H614   1.111       .  S
C609       C1789   1.539       .  S
C609        H615   1.086       .  S
C609        C610   1.379       .  D
C610        C769   1.505       .  S
C611       C1789   1.507       .  S
C611       H1208   1.088       .  S
C611        C612   1.349       .  D
H613       C1790   1.084   1_455  S
H616       C1203   1.088   1_465  S
C617       C1802   1.536       .  S
C617       C1807   1.509       .  S
C617       C1805   1.543       .  S
C617        C694   1.531   1_655  S
C618       C1801   1.536       .  S
C618        H625   1.086       .  S
C618        C619   1.378       .  D
C619        C620   1.551       .  S
C619        C786   1.505       .  S
C620        C624   1.584       .  S
C620        C622   1.546       .  S
C620        H626   1.111       .  S
C621       C1801   1.543       .  S
C621       H1811   1.084       .  S
C621        C622   1.383       .  D
C622        C846   1.495       .  S
C623       C1801   1.507       .  S
C623       H1812   1.088       .  S
C623        C624   1.349       .  D
C624        C667   1.504       .  S
H627       C1805   1.084   1_455  S
H628       C1807   1.088   1_455  S
C629        C630   1.526       .  S
C629        C635   1.522       .  S
C629        C633   1.516       .  S
C629        C966   1.498       .  S
C630       H1821   1.087   1_455  S
C630        C631   1.357       .  D
C631        C632   1.567       .  S
C631        C817   1.494       .  S
C632        C636   1.574       .  S
C632        C634   1.583       .  S
C632        H638   1.106       .  S
C633        H935   1.081       .  S
C633        C634   1.378       .  D
C634        C646   1.543       .  S
C635       H1824   1.087   1_455  S
C635        C636   1.357       .  D
C636        C808   1.497       .  S
H637       C1814   1.087       .  S
H639        C929   1.074   1_554  S
H640       C1819   1.087       .  S
C641        C642   1.518       .  S
C641        C647   1.517       .  S
C641        C645   1.517       .  S
C641        C957   1.487       .  S
C642        H649   1.088       .  S
C642        C643   1.356       .  D
C643        C644   1.554       .  S
C643        C796   1.480       .  S
C644        C648   1.560       .  S
C644        C646   1.579       .  S
C644        H650   1.107       .  S
C645        H947   1.082       .  S
C645        C646   1.383       .  D
C647        H652   1.088       .  S
C647        C648   1.354       .  D
C648        C882   1.472       .  S
H651        C941   1.076   1_554  S
O653        C656   1.269       .  A
O653       Cd658   2.424       .  S
C654        O663   1.262       .  A
C654        O659   1.271       .  A
O655        C661   1.263       .  A
O655       Cd658   2.356       .  S
C656        C679   1.490   1_565  S
C656        O664   1.264       .  A
C657        O662   1.267       .  A
C657        O660   1.258       .  A
C657        C674   1.405       .  S
Cd658       O665   2.478       .  S
Cd658       O664   2.402       .  S
Cd658       O663   2.385       .  S
Cd658       O659   2.428       .  S
Cd658       O662   2.387       .  S
Cd658       O660   2.235       .  S
C661        C937   1.494   1_554  S
C661        O665   1.273       .  A
O666        C669   1.274       .  A
O666       Cd671   2.479       .  S
C667        O676   1.259       .  A
C667        O672   1.275       .  A
O668        C674   1.269       .  A
O668       Cd671   2.353       .  S
C669        O677   1.260       .  A
C670        C925   1.503   1_554  S
C670       O1859   1.261   1_455  A
C670        O673   1.269       .  A
Cd671       O678   2.220       .  S
Cd671       O677   2.600       .  S
Cd671       O676   2.590       .  S
Cd671       O672   2.477       .  S
Cd671       O675   2.433       .  S
Cd671      O1857   2.493       .  S
O673      Cd1855   2.487   1_455  S
C674        O678   1.266       .  A
O675       C1854   1.261       .  A
C680        H687   1.087       .  S
C680        C681   1.362       .  D
C681        C682   1.554       .  S
C681        C834   1.477       .  S
C682        C686   1.586       .  S
C682        C684   1.548       .  S
C682        H688   1.110       .  S
C683        C684   1.376       .  D
C684        C774   1.492       .  S
C685        C686   1.349       .  D
C686        C707   1.504       .  S
O691        C694   1.267       .  A
O691       Cd696   2.595       .  S
C692        O701   1.261       .  A
C692        O697   1.274       .  A
O693        C699   1.258       .  A
O693       Cd696   2.386       .  S
C694        O702   1.267       .  A
C695        O700   1.263       .  A
C695        O698   1.263       .  A
C695        C708   1.410       .  S
Cd696       O703   2.521       .  S
Cd696       O702   2.475       .  S
Cd696       O701   2.616       .  S
Cd696       O697   2.431       .  S
Cd696       O700   2.361       .  S
Cd696       O698   2.328       .  S
C699        C729   1.499       .  S
C699        O703   1.270       .  A
O704        C707   1.275       .  A
O704       Cd709   2.435       .  S
C705        O714   1.266       .  A
C705        O710   1.269       .  A
O706       Cd709   2.354       .  S
C707        O715   1.261       .  A
C708        O713   1.264       .  A
C708        O711   1.261       .  A
Cd709       O715   2.593       .  S
Cd709       O714   2.474       .  S
Cd709       O710   2.578       .  S
Cd709       O713   2.361       .  S
Cd709       O711   2.321       .  S
C712        C717   1.497       .  S
C712        O716   1.270       .  A
C717        C718   1.518       .  S
C717        C723   1.524       .  S
C717        C721   1.521       .  S
C718        C719   1.354       .  D
C719        C720   1.576       .  S
C719        C793   1.495       .  S
C720        C724   1.574       .  S
C720        C722   1.588       .  S
C720        H726   1.105       .  S
C721        H727   1.077       .  S
C721        C722   1.384       .  D
C722        C734   1.550       .  S
C723        C724   1.357       .  D
C724        C805   1.508       .  S
C729        C730   1.515       .  S
C729        C735   1.512       .  S
C729        C733   1.524       .  S
C730        H737   1.088       .  S
C730        C731   1.360       .  D
C731        C732   1.574       .  S
C731        C820   1.499       .  S
C732        C736   1.569       .  S
C732        C734   1.584       .  S
C732        H738   1.107       .  S
C733        H739   1.076       .  S
C733        C734   1.385       .  D
C735        H740   1.088       .  S
C735        C736   1.357       .  D
C736        C879   1.488       .  S
C742        C798   1.504       .  S
C742        O751   1.263       .  A
O743        C749   1.257       .  A
C744        C803   1.528       .  S
C744        O752   1.268   1_565  A
C745        O750   1.265       .  A
C745        O748   1.261       .  A
C745        C762   1.414       .  S
Cd746       O752   2.470   1_565  S
Cd746       O751   2.609       .  S
Cd746       O750   2.367       .  S
Cd746       O748   2.341       .  S
C749        C767   1.497       .  S
C749        O753   1.270       .  A
O754        C757   1.266       .  A
O754       Cd759   2.401       .  S
C755        C877   1.514       .  S
C755        O764   1.260       .  A
C755        O760   1.272       .  A
O756        C762   1.263       .  A
O756       Cd759   2.341       .  S
C757        C815   1.503       .  S
C757        O765   1.264       .  A
C758        C779   1.489       .  S
C758        O763   1.257       .  A
C758        O761   1.270       .  A
Cd759       O766   2.339       .  S
Cd759       O765   2.532       .  S
Cd759       O764   2.512       .  S
Cd759       O760   2.395       .  S
Cd759       O763   2.337       .  S
Cd759       O761   2.512       .  S
C762        O766   1.265       .  A
C767        C768   1.524       .  S
C767        C773   1.519       .  S
C767        C771   1.518       .  S
C768        H775   1.087       .  S
C768        C769   1.359       .  D
C769        C770   1.571       .  S
C770        C774   1.574       .  S
C770        C772   1.579       .  S
C770        H776   1.107       .  S
C771        H777   1.077       .  S
C771        C772   1.381       .  D
C772        C784   1.536       .  S
C773        H778   1.087       .  S
C773        C774   1.357       .  D
C779        C780   1.517       .  S
C779        C785   1.516       .  S
C779        C783   1.518       .  S
C780        H787   1.088       .  S
C780        C781   1.354       .  D
C781        C782   1.572       .  S
C782        C786   1.578       .  S
C782        C784   1.579       .  S
C782        H788   1.106       .  S
C783        H789   1.076       .  S
C783        C784   1.384       .  D
C785        H790   1.088       .  S
C785        C786   1.354       .  D
C791        C792   1.543       .  S
C791        C797   1.503       .  S
C791        C795   1.530       .  S
C791        C854   1.511       .  S
C792        H799   1.086       .  S
C793        C794   1.546       .  S
C794        C798   1.581       .  S
C794        C796   1.547       .  S
C794        H800   1.111       .  S
C795        H801   1.087       .  S
C797        H802   1.088       .  S
C803       C1988   1.542       .  S
C803        C807   1.543       .  S
C804       C1987   1.542   1_455  S
C804       H1995   1.085       .  S
C804        C805   1.380       .  D
C805        C806   1.551       .  S
C806        C808   1.545       .  S
C806        H812   1.111       .  S
C807        H813   1.084       .  S
C807       C1992   1.381       .  D
C808       C1991   1.383   1_455  D
C809        H814   1.089       .  S
C809       C1994   1.350       .  D
C810       C1993   1.349   1_455  D
C810        C867   1.500       .  S
H811       C1988   1.085       .  S
C815        C816   1.540       .  S
C815        C821   1.507       .  S
C815       C2003   1.525       .  S
C816        H823   1.084       .  S
C816       C2001   1.380       .  D
C817        C818   1.550       .  S
C817       C2000   1.380   1_455  D
C818        C822   1.589       .  S
C818        C820   1.554       .  S
C818        H824   1.110       .  S
C819       C1999   1.529   1_455  S
C819       H2009   1.087       .  S
C819        C820   1.373       .  D
C821        H826   1.089       .  S
C821       C2006   1.349       .  D
C822       C2005   1.348   1_455  D
C822        C865   1.506       .  S
H825       C2003   1.087       .  S
C827        C828   1.506       .  S
C827        C833   1.513       .  S
C827        C831   1.524       .  S
C827       C1151   1.499   1_554  S
C828        H835   1.088       .  S
C828        C829   1.359       .  D
C829        C830   1.556       .  S
C830        C834   1.555       .  S
C830        C832   1.585       .  S
C830        H836   1.107       .  S
C831       H1133   1.074   1_554  S
C831        C832   1.388       .  D
C832        C844   1.552       .  S
C833        H838   1.088       .  S
C833        C834   1.362       .  D
H837       C1127   1.075       .  S
C839        C840   1.525       .  S
C839        C845   1.526       .  S
C839        C843   1.522       .  S
C839       C1168   1.503   1_554  S
C840        H847   1.087       .  S
C840        C841   1.360       .  D
C841        C842   1.570       .  S
C842        C846   1.569       .  S
C842        C844   1.584       .  S
C842        H848   1.107       .  S
C843       H1145   1.074   1_554  S
C843        C844   1.379       .  D
C845        H850   1.087       .  S
C845        C846   1.359       .  D
H849       C1139   1.076       .  S
O851        C854   1.272       .  A
O851       Cd856   2.485       .  S
C852        C884   1.484       .  S
C852        O861   1.262       .  A
C852        O857   1.274       .  A
O853        C859   1.270       .  A
O853       Cd856   2.350       .  S
C854        O862   1.262       .  A
C855       C1123   1.493       .  S
C855        O860   1.266       .  A
C855        O858   1.270       .  A
Cd856       O863   2.218       .  S
Cd856       O862   2.454       .  S
Cd856       O861   2.545       .  S
Cd856       O857   2.379       .  S
Cd856       O860   2.368       .  S
Cd856       O858   2.466       .  S
C859        O863   1.263       .  A
C859        C868   1.403       .  S
O864       C2051   1.274       .  A
O864      Cd2053   2.459       .  S
C865        O874   1.260       .  A
C865       O2054   1.275   1_455  A
O866        C872   1.262       .  A
O866      Cd2053   2.413       .  S
C867       O2048   1.274   1_455  A
C867        O875   1.260       .  A
C868        O873   1.269       .  A
C868        O871   1.265       .  A
Cd869      O2048   2.465   1_455  S
Cd869      O2050   2.428       .  S
Cd869      O2060   2.491   1_455  S
Cd869       O875   2.584       .  S
Cd869       O874   2.599       .  S
Cd869      O2054   2.478   1_455  S
Cd869       O873   2.344       .  S
Cd869       O871   2.225       .  S
O870       C2049   1.275       .  A
O870      Cd2053   2.476       .  S
C872       C1135   1.499       .  S
C872        O876   1.269       .  A
O876      Cd2053   2.476       .  S
C877        C878   1.531       .  S
C877        C883   1.509       .  S
C877        C881   1.541       .  S
C878        H885   1.087       .  S
C878        C879   1.374       .  D
C879        C880   1.541       .  S
C880        C884   1.567       .  S
C880        C882   1.533       .  S
C880        H886   1.111       .  S
C881        H887   1.086       .  S
C881        C882   1.381       .  D
C883        H888   1.086       .  S
C883        C884   1.346       .  D
C889        C890   1.533       .  S
C889        C895   1.502       .  S
C889        C893   1.514       .  S
C889        C950   1.486       .  S
C890        H897   1.086       .  S
C890        C891   1.375       .  D
C891        C892   1.551       .  S
C891       C1077   1.489       .  S
C892        C896   1.586       .  S
C892        C894   1.550       .  S
C892        H898   1.110       .  S
C893        H899   1.088       .  S
C893        C894   1.362       .  D
C894       C1125   1.470       .  S
C895        H900   1.088       .  S
C895        C896   1.349       .  D
C896        C988   1.504       .  S
C901       C2086   1.545       .  S
C901       C2091   1.509       .  S
C901       C2089   1.537       .  S
C901       C1001   1.527   1_655  S
C902       C2085   1.545       .  S
C902       H2093   1.084       .  S
C902        C903   1.382       .  D
C903        C904   1.547       .  S
C903       C1137   1.498       .  S
C904        C908   1.585       .  S
C904        C906   1.553       .  S
C904        H910   1.111       .  S
C905       C2085   1.540       .  S
C905        H911   1.086       .  S
C905        C906   1.379       .  D
C906       C1065   1.509       .  S
C907       C2085   1.506       .  S
C907       H1504   1.089       .  S
C907        C908   1.350       .  D
H909       C2086   1.084   1_455  S
H912       C1499   1.089   1_465  S
C913       C2098   1.537       .  S
C913       C2103   1.507       .  S
C913       C2101   1.542       .  S
C913        C990   1.527   1_655  S
C914       C2097   1.535       .  S
C914        H921   1.087       .  S
C914        C915   1.378       .  D
C915        C916   1.549       .  S
C915       C1082   1.502       .  S
C916        C920   1.584       .  S
C916        C918   1.545       .  S
C916        H922   1.111       .  S
C917       C2097   1.546       .  S
C917       H2107   1.084       .  S
C917        C918   1.384       .  D
C918       C1142   1.496       .  S
C919       C2097   1.508       .  S
C919       H2108   1.088       .  S
C919        C920   1.351       .  D
C920        C963   1.506       .  S
H923       C2101   1.084   1_455  S
H924       C2103   1.088   1_455  S
C925        C926   1.528       .  S
C925        C931   1.523       .  S
C925        C929   1.519       .  S
C926       H2117   1.087   1_455  S
C926        C927   1.361       .  D
C927        C928   1.565       .  S
C927       C1113   1.494       .  S
C928        C932   1.571       .  S
C928        C930   1.581       .  S
C928        H934   1.107       .  S
C929        C930   1.379       .  D
C930        C942   1.546       .  S
C931       H2120   1.087   1_455  S
C931        C932   1.358       .  D
C932       C1104   1.495       .  S
H933       C2110   1.087       .  S
H936       C2115   1.087       .  S
C937        C938   1.518       .  S
C937        C943   1.518       .  S
C937        C941   1.520       .  S
C938        H945   1.088       .  S
C938        C939   1.357       .  D
C939        C940   1.560       .  S
C939       C1092   1.487       .  S
C940        C944   1.564       .  S
C940        C942   1.581       .  S
C940        H946   1.107       .  S
C941        C942   1.385       .  D
C943        H948   1.087       .  S
C943        C944   1.356       .  D
C944       C1178   1.479       .  S
O949        C952   1.269       .  A
O949       Cd954   2.408       .  S
C950        O959   1.264       .  A
C950        O955   1.270       .  A
O951        C957   1.262       .  A
O951       Cd954   2.328       .  S
C952        C975   1.489   1_565  S
C952        O960   1.263       .  A
C953        O958   1.267       .  A
C953        O956   1.258       .  A
C953        C970   1.399       .  S
Cd954       O961   2.466       .  S
Cd954       O960   2.405       .  S
Cd954       O959   2.379       .  S
Cd954       O955   2.408       .  S
Cd954       O958   2.374       .  S
Cd954       O956   2.203       .  S
C957        O961   1.274       .  A
O962        C965   1.274       .  A
O962       Cd967   2.463       .  S
C963        O972   1.259       .  A
C963        O968   1.274       .  A
O964        C970   1.269       .  A
O964       Cd967   2.352       .  S
C965        O973   1.259       .  A
C966       O2155   1.261   1_455  A
C966        O969   1.269       .  A
Cd967       O974   2.195       .  S
Cd967       O973   2.593       .  S
Cd967       O972   2.600       .  S
Cd967       O968   2.477       .  S
Cd967       O971   2.421       .  S
Cd967      O2153   2.475       .  S
O969      Cd2151   2.487   1_455  S
C970        O974   1.266       .  A
O971       C2150   1.261       .  A
C976        H983   1.088       .  S
C976        C977   1.363       .  D
C977        C978   1.551       .  S
C977       C1130   1.475       .  S
C978        C982   1.587       .  S
C978        C980   1.551       .  S
C978        H984   1.110       .  S
C979        C980   1.376       .  D
C980       C1070   1.492       .  S
C981        C982   1.349       .  D
C982       C1003   1.505       .  S
O987        C990   1.267       .  A
O987       Cd992   2.587       .  S
C988        O997   1.261       .  A
C988        O993   1.274       .  A
O989        C995   1.257       .  A
O989       Cd992   2.389       .  S
C990        O998   1.268       .  A
C991        O996   1.263       .  A
C991        O994   1.263       .  A
C991       C1004   1.411       .  S
Cd992       O999   2.530       .  S
Cd992       O998   2.458       .  S
Cd992       O997   2.602       .  S
Cd992       O993   2.424       .  S
Cd992       O996   2.337       .  S
Cd992       O994   2.345       .  S
C995       C1025   1.503       .  S
C995        O999   1.271       .  A
O1000      C1003   1.273       .  A
O1000     Cd1005   2.413       .  S
C1001      O1010   1.267       .  A
C1001      O1006   1.268       .  A
O1002     Cd1005   2.368       .  S
C1003      O1011   1.261       .  A
C1004      O1009   1.263       .  A
C1004      O1007   1.262       .  A
Cd1005     O1011   2.607       .  S
Cd1005     O1010   2.473       .  S
Cd1005     O1006   2.576       .  S
Cd1005     O1009   2.343       .  S
Cd1005     O1007   2.343       .  S
C1008      C1013   1.493       .  S
C1008      O1012   1.270       .  A
C1013      C1014   1.518       .  S
C1013      C1019   1.523       .  S
C1013      C1017   1.517       .  S
C1014      C1015   1.354       .  D
C1015      C1016   1.579       .  S
C1015      C1089   1.499       .  S
C1016      C1020   1.573       .  S
C1016      C1018   1.588       .  S
C1016      H1022   1.106       .  S
C1017      H1023   1.078       .  S
C1017      C1018   1.382       .  D
C1018      C1030   1.546       .  S
C1019      C1020   1.358       .  D
C1020      C1101   1.506       .  S
C1025      C1026   1.516       .  S
C1025      C1031   1.516       .  S
C1025      C1029   1.523       .  S
C1026      H1033   1.088       .  S
C1026      C1027   1.360       .  D
C1027      C1028   1.574       .  S
C1027      C1116   1.501       .  S
C1028      C1032   1.567       .  S
C1028      C1030   1.580       .  S
C1028      H1034   1.107       .  S
C1029      H1035   1.077       .  S
C1029      C1030   1.385       .  D
C1031      H1036   1.087       .  S
C1031      C1032   1.360       .  D
C1032      C1175   1.490       .  S
C1038      C1094   1.506       .  S
C1038      O1047   1.263       .  A
O1039      C1045   1.257       .  A
C1040      C1099   1.531       .  S
C1040      O1048   1.269   1_565  A
C1041      O1046   1.265       .  A
C1041      O1044   1.261       .  A
C1041      C1058   1.414       .  S
Cd1042     O1048   2.476   1_565  S
Cd1042     O1047   2.607       .  S
Cd1042     O1046   2.352       .  S
Cd1042     O1044   2.350       .  S
C1045      C1063   1.498       .  S
C1045      O1049   1.270       .  A
O1050      C1053   1.267       .  A
O1050     Cd1055   2.417       .  S
C1051      C1173   1.512       .  S
C1051      O1060   1.259       .  A
C1051      O1056   1.272       .  A
O1052      C1058   1.263       .  A
O1052     Cd1055   2.332       .  S
C1053      C1111   1.506       .  S
C1053      O1061   1.264       .  A
C1054      C1075   1.491       .  S
C1054      O1059   1.258       .  A
C1054      O1057   1.270       .  A
Cd1055     O1062   2.344       .  S
Cd1055     O1061   2.525       .  S
Cd1055     O1060   2.511       .  S
Cd1055     O1056   2.390       .  S
Cd1055     O1059   2.351       .  S
Cd1055     O1057   2.510       .  S
C1058      O1062   1.266       .  A
C1063      C1064   1.524       .  S
C1063      C1069   1.519       .  S
C1063      C1067   1.517       .  S
C1064      H1071   1.087       .  S
C1064      C1065   1.359       .  D
C1065      C1066   1.573       .  S
C1066      C1070   1.573       .  S
C1066      C1068   1.581       .  S
C1066      H1072   1.105       .  S
C1067      H1073   1.083       .  S
C1067      C1068   1.380       .  D
C1068      C1080   1.537       .  S
C1069      H1074   1.087       .  S
C1069      C1070   1.356       .  D
C1075      C1076   1.520       .  S
C1075      C1081   1.515       .  S
C1075      C1079   1.519       .  S
C1076      H1083   1.087       .  S
C1076      C1077   1.357       .  D
C1077      C1078   1.571       .  S
C1078      C1082   1.576       .  S
C1078      C1080   1.578       .  S
C1078      H1084   1.107       .  S
C1079      H1085   1.083       .  S
C1079      C1080   1.383       .  D
C1081      H1086   1.088       .  S
C1081      C1082   1.353       .  D
C1087      C1088   1.540       .  S
C1087      C1093   1.504       .  S
C1087      C1091   1.528       .  S
C1087      C1150   1.508       .  S
C1088      H1095   1.086       .  S
C1089      C1090   1.547       .  S
C1090      C1094   1.585       .  S
C1090      C1092   1.548       .  S
C1090      H1096   1.111       .  S
C1091      H1097   1.087       .  S
C1093      H1098   1.088       .  S
C1099      C2284   1.542       .  S
C1099      C1103   1.547       .  S
C1100      C2283   1.541   1_455  S
C1100      H2291   1.086   1_455  S
C1100      C1101   1.380       .  D
C1101      C1102   1.551       .  S
C1102      C1104   1.543       .  S
C1102      H1108   1.111       .  S
C1103      H1109   1.084       .  S
C1103      C2288   1.383       .  D
C1104      C2287   1.382   1_455  D
C1105      H1110   1.089       .  S
C1105      C2290   1.349       .  D
C1106      C2289   1.350   1_455  D
C1106      C1163   1.502       .  S
H1107      C2284   1.085       .  S
C1111      C1112   1.539       .  S
C1111      C1117   1.506       .  S
C1111      C2299   1.526       .  S
C1112      H1119   1.085       .  S
C1112      C2297   1.378       .  D
C1113      C1114   1.548       .  S
C1113      C2296   1.379   1_455  D
C1114      C1118   1.585       .  S
C1114      C1116   1.555       .  S
C1114      H1120   1.110       .  S
C1115      C2295   1.528   1_455  S
C1115      H2305   1.087       .  S
C1115      C1116   1.372       .  D
C1117      H1122   1.089       .  S
C1117      C2302   1.350       .  D
C1118      C2301   1.350   1_455  D
C1118      C1161   1.504       .  S
H1121      C2299   1.087       .  S
C1123      C1124   1.505       .  S
C1123      C1129   1.509       .  S
C1123      C1127   1.524       .  S
C1124      H1131   1.088       .  S
C1124      C1125   1.359       .  D
C1125      C1126   1.553       .  S
C1126      C1130   1.559       .  S
C1126      C1128   1.584       .  S
C1126      H1132   1.107       .  S
C1127      C1128   1.387       .  D
C1128      C1140   1.552       .  S
C1129      H1134   1.088       .  S
C1129      C1130   1.360       .  D
C1135      C1136   1.525       .  S
C1135      C1141   1.524       .  S
C1135      C1139   1.520       .  S
C1136      H1143   1.087       .  S
C1136      C1137   1.358       .  D
C1137      C1138   1.571       .  S
C1138      C1142   1.570       .  S
C1138      C1140   1.586       .  S
C1138      H1144   1.106       .  S
C1139      C1140   1.379       .  D
C1141      H1146   1.087       .  S
C1141      C1142   1.357       .  D
O1147      C1150   1.271       .  A
O1147     Cd1152   2.482       .  S
C1148      C1180   1.484       .  S
C1148      O1157   1.261       .  A
C1148      O1153   1.275       .  A
O1149      C1155   1.269       .  A
O1149     Cd1152   2.370       .  S
C1150      O1158   1.262       .  A
C1151      O1156   1.264       .  A
C1151      O1154   1.271       .  A
Cd1152     O1159   2.223       .  S
Cd1152     O1158   2.457       .  S
Cd1152     O1157   2.538       .  S
Cd1152     O1153   2.388       .  S
Cd1152     O1156   2.372       .  S
Cd1152     O1154   2.495       .  S
C1155      O1159   1.261       .  A
C1155      C1164   1.406       .  S
O1160      C2347   1.275       .  A
O1160     Cd2349   2.468       .  S
C1161      O1170   1.258       .  A
C1161      O2350   1.275   1_455  A
O1162      C1168   1.262       .  A
O1162     Cd2349   2.428       .  S
C1163      O2344   1.273   1_455  A
C1163      O1171   1.260       .  A
C1164      O1169   1.270       .  A
C1164      O1167   1.266       .  A
Cd1165     O2344   2.459   1_455  S
Cd1165     O2346   2.444       .  S
Cd1165     O2356   2.487   1_455  S
Cd1165     O1171   2.594       .  S
Cd1165     O1170   2.589       .  S
Cd1165     O2350   2.489   1_455  S
Cd1165     O1169   2.357       .  S
Cd1165     O1167   2.222       .  S
O1166      C2345   1.274       .  A
O1166     Cd2349   2.474       .  S
C1168      O1172   1.269       .  A
O1172     Cd2349   2.479       .  S
C1173      C1174   1.533       .  S
C1173      C1179   1.508       .  S
C1173      C1177   1.540       .  S
C1174      H1181   1.087       .  S
C1174      C1175   1.375       .  D
C1175      C1176   1.545       .  S
C1176      C1180   1.569       .  S
C1176      C1178   1.537       .  S
C1176      H1182   1.111       .  S
C1177      H1183   1.086       .  S
C1177      C1178   1.380       .  D
C1179      H1184   1.086       .  S
C1179      C1180   1.343       .  D
C1185      C1186   1.535       .  S
C1185      C1191   1.502       .  S
C1185      C1189   1.512       .  S
C1185      C1246   1.489       .  S
C1186      H1193   1.086       .  S
C1186      C1187   1.377       .  D
C1187      C1188   1.548       .  S
C1187      C1373   1.487       .  S
C1188      C1192   1.589       .  S
C1188      C1190   1.553       .  S
C1188      H1194   1.110       .  S
C1189      H1195   1.087       .  S
C1189      C1190   1.362       .  D
C1190      C1421   1.475       .  S
C1191      H1196   1.088       .  S
C1191      C1192   1.349       .  D
C1192      C1284   1.508       .  S
C1197      C1297   1.528       .  S
C1198      C1199   1.382       .  D
C1199      C1200   1.543       .  S
C1199      C1433   1.496       .  S
C1200      C1204   1.584       .  S
C1200      C1202   1.552       .  S
C1200      H1206   1.111       .  S
C1201      H1207   1.086       .  S
C1201      C1202   1.377       .  D
C1202      C1361   1.503       .  S
C1203      C1204   1.351       .  D
C1204      C1853   1.506   1_545  S
C1209      C1286   1.528       .  S
C1210      H1217   1.086       .  S
C1210      C1211   1.379       .  D
C1211      C1212   1.551       .  S
C1211      C1378   1.507       .  S
C1212      C1216   1.586       .  S
C1212      C1214   1.549       .  S
C1212      H1218   1.111       .  S
C1213      C1214   1.382       .  D
C1214      C1438   1.499       .  S
C1215      C1216   1.349       .  D
C1216      C1259   1.505       .  S
C1221      C1222   1.528       .  S
C1221      C1227   1.524       .  S
C1221      C1225   1.520       .  S
C1221      C1558   1.506       .  S
C1222      C1223   1.360       .  D
C1223      C1224   1.563       .  S
C1223      C1409   1.491       .  S
C1224      C1228   1.570       .  S
C1224      C1226   1.579       .  S
C1224      H1230   1.107       .  S
C1225      H1527   1.078       .  S
C1225      C1226   1.380       .  D
C1226      C1238   1.545       .  S
C1227      C1228   1.359       .  D
C1228      C1400   1.495       .  S
H1231      C1521   1.075   1_554  S
C1233      C1234   1.516       .  S
C1233      C1239   1.514       .  S
C1233      C1237   1.516       .  S
C1233      C1549   1.483       .  S
C1234      H1241   1.088       .  S
C1234      C1235   1.354       .  D
C1235      C1236   1.560       .  S
C1235      C1388   1.485       .  S
C1236      C1240   1.566       .  S
C1236      C1238   1.585       .  S
C1236      H1242   1.106       .  S
C1237      H1539   1.079       .  S
C1237      C1238   1.383       .  D
C1239      H1244   1.088       .  S
C1239      C1240   1.353       .  D
C1240      C1474   1.476       .  S
H1243      C1533   1.076   1_554  S
O1245      C1248   1.269       .  A
O1245     Cd1250   2.419       .  S
C1246      O1255   1.264       .  A
C1246      O1251   1.271       .  A
O1247      C1253   1.262       .  A
O1247     Cd1250   2.338       .  S
C1248      C1271   1.491       .  S
C1248      O1256   1.264       .  A
C1249      O1254   1.268       .  A
C1249      O1252   1.258       .  A
C1249      C1266   1.406       .  S
Cd1250     O1257   2.475       .  S
Cd1250     O1256   2.397       .  S
Cd1250     O1255   2.386       .  S
Cd1250     O1251   2.402       .  S
Cd1250     O1254   2.398       .  S
Cd1250     O1252   2.209       .  S
C1253      C1529   1.487   1_554  S
C1253      O1257   1.272       .  A
O1258      C1261   1.274       .  A
O1258     Cd1263   2.484       .  S
C1259      O1268   1.259       .  A
C1259      O1264   1.274       .  A
O1260      C1266   1.268       .  A
O1260     Cd1263   2.373       .  S
C1261      C1796   1.505       .  S
C1261      O1269   1.259       .  A
C1262      C1517   1.506   1_554  S
C1262      O1265   1.269       .  A
Cd1263     O1270   2.214       .  S
Cd1263     O1269   2.598       .  S
Cd1263     O1268   2.591       .  S
Cd1263     O1264   2.493       .  S
Cd1263     O1267   2.427       .  S
C1266      O1270   1.265       .  A
C1271      C1864   1.518       .  S
C1271      C1869   1.503       .  S
C1271      C1867   1.540       .  S
C1272      C1863   1.518       .  S
C1272      H1279   1.087       .  S
C1272      C1273   1.363       .  D
C1273      C1274   1.553       .  S
C1273      C1426   1.477       .  S
C1274      C1278   1.587       .  S
C1274      C1276   1.550       .  S
C1274      H1280   1.110       .  S
C1275      C1863   1.540       .  S
C1275      H1873   1.086   1_545  S
C1275      C1276   1.376       .  D
C1276      C1366   1.495       .  S
C1277      C1863   1.501       .  S
C1277      H1874   1.088   1_545  S
C1277      C1278   1.349       .  D
C1278      C1299   1.504       .  S
H1281      C1867   1.086       .  S
H1282      C1869   1.088       .  S
O1283      C1286   1.271       .  A
O1283     Cd1288   2.561       .  S
C1284      O1293   1.262       .  A
C1284      O1289   1.275       .  A
O1285      C1291   1.255       .  A
O1285     Cd1288   2.364       .  S
C1286      O1294   1.260       .  A
C1287      O1292   1.264       .  A
C1287      O1290   1.261       .  A
C1287      C1300   1.409       .  S
Cd1288     O1295   2.537       .  S
Cd1288     O1294   2.500       .  S
Cd1288     O1293   2.613       .  S
Cd1288     O1289   2.425       .  S
Cd1288     O1292   2.344       .  S
Cd1288     O1290   2.329       .  S
C1291      C1321   1.496       .  S
C1291      O1295   1.270       .  A
O1296      C1299   1.275       .  A
O1296     Cd1301   2.450       .  S
C1297      O1306   1.267       .  A
C1297      O1302   1.268       .  A
O1298      C1896   1.258       .  A
O1298     Cd1301   2.387       .  S
C1299      O1307   1.259       .  A
C1300      O1305   1.262       .  A
C1300      O1303   1.262       .  A
Cd1301     O1900   2.511   1_545  S
Cd1301     O1307   2.586       .  S
Cd1301     O1306   2.477       .  S
Cd1301     O1302   2.575       .  S
Cd1301     O1305   2.337       .  S
Cd1301     O1303   2.333       .  S
C1304      C1309   1.493       .  S
C1304      O1890   1.258       .  A
C1304      O1308   1.270       .  A
O1308     Cd1893   2.493       .  S
C1309      C1310   1.516       .  S
C1309      C1315   1.523       .  S
C1309      C1313   1.516       .  S
C1310      H1909   1.088       .  S
C1310      C1311   1.354       .  D
C1311      C1312   1.575       .  S
C1311      C1385   1.489       .  S
C1312      C1316   1.574       .  S
C1312      C1314   1.584       .  S
C1312      H1318   1.106       .  S
C1313      H1319   1.081       .  S
C1313      C1314   1.380       .  D
C1314      C1326   1.543       .  S
C1315      H1912   1.087       .  S
C1315      C1316   1.358       .  D
C1316      C1397   1.507       .  S
H1317      C1902   1.087   1_545  S
H1320      C1907   1.087   1_545  S
C1321      C1322   1.515       .  S
C1321      C1327   1.512       .  S
C1321      C1325   1.519       .  S
C1322      H1329   1.088       .  S
C1322      C1323   1.360       .  D
C1323      C1324   1.570       .  S
C1323      C1412   1.496       .  S
C1324      C1328   1.567       .  S
C1324      C1326   1.582       .  S
C1324      H1330   1.106       .  S
C1325      H1331   1.081       .  S
C1325      C1326   1.385       .  D
C1327      H1332   1.088       .  S
C1327      C1328   1.355       .  D
C1328      C1471   1.486       .  S
O1333      C1928   1.268       .  A
O1333     Cd1930   2.576       .  S
C1334      C1390   1.507       .  S
C1334      O1343   1.264       .  A
C1334      O1931   1.271       .  A
O1335      C1341   1.258   1_565  A
O1335     Cd1930   2.406       .  S
C1336      C1395   1.526       .  S
C1336      O1925   1.268       .  A
C1336      O1344   1.269       .  A
C1337      O1342   1.265       .  A
C1337      O1340   1.260       .  A
C1337      C1354   1.416       .  S
Cd1338     O1925   2.569       .  S
Cd1338     O1927   2.377       .  S
Cd1338     O1937   2.501       .  S
Cd1338     O1344   2.462       .  S
Cd1338     O1343   2.611       .  S
Cd1338     O1931   2.436       .  S
Cd1338     O1342   2.370       .  S
Cd1338     O1340   2.354       .  S
O1339      C1926   1.273   1_545  A
O1339     Cd1930   2.434   1_545  S
C1341      C1359   1.501       .  S
C1341      O1345   1.270       .  A
O1345     Cd1930   2.510   1_545  S
O1346      C1349   1.267       .  A
O1346     Cd1351   2.427       .  S
C1347      C1469   1.516       .  S
C1347      O1356   1.259       .  A
C1347      O1352   1.273       .  A
O1348      C1354   1.263       .  A
O1348     Cd1351   2.344       .  S
C1349      C1407   1.508       .  S
C1349      O1357   1.265       .  A
C1350      C1371   1.491       .  S
C1350      O1355   1.258       .  A
C1350      O1353   1.270       .  A
Cd1351     O1358   2.346       .  S
Cd1351     O1357   2.522       .  S
Cd1351     O1356   2.518       .  S
Cd1351     O1352   2.408       .  S
Cd1351     O1355   2.344       .  S
Cd1351     O1353   2.514       .  S
C1354      O1358   1.265       .  A
C1359      C1360   1.522       .  S
C1359      C1365   1.520       .  S
C1359      C1363   1.519       .  S
C1360      H1367   1.088       .  S
C1360      C1361   1.358       .  D
C1361      C1362   1.572       .  S
C1362      C1366   1.575       .  S
C1362      C1364   1.581       .  S
C1362      H1368   1.106       .  S
C1363      H1369   1.079       .  S
C1363      C1364   1.381       .  D
C1364      C1376   1.541       .  S
C1365      H1370   1.087       .  S
C1365      C1366   1.359       .  D
C1371      C1372   1.516       .  S
C1371      C1377   1.518       .  S
C1371      C1375   1.518       .  S
C1372      H1379   1.088       .  S
C1372      C1373   1.353       .  D
C1373      C1374   1.572       .  S
C1374      C1378   1.578       .  S
C1374      C1376   1.581       .  S
C1374      H1380   1.106       .  S
C1375      H1381   1.078       .  S
C1375      C1376   1.385       .  D
C1377      H1382   1.088       .  S
C1377      C1378   1.355       .  D
C1383      C1384   1.542       .  S
C1383      C1389   1.502       .  S
C1383      C1387   1.527   1_545  S
C1383      C1446   1.505       .  S
C1384      H1391   1.086       .  S
C1384      C1977   1.379   1_545  D
C1385      C1386   1.546       .  S
C1385      C1976   1.377       .  D
C1386      C1390   1.584       .  S
C1386      C1388   1.547       .  S
C1386      H1392   1.111       .  S
C1387      H1393   1.087   1_565  S
C1387      C1980   1.369       .  D
C1388      C1979   1.371       .  D
C1389      H1394   1.088       .  S
C1389      C1982   1.351   1_545  D
C1390      C1981   1.355       .  D
C1395      C1993   1.506       .  S
C1395      C1399   1.545       .  S
C1396      C1397   1.378       .  D
C1397      C1398   1.551       .  S
C1398      C1994   1.583       .  S
C1398      C1400   1.545       .  S
C1398      H1404   1.111       .  S
C1399      H1405   1.084       .  S
C1401      C1987   1.505   1_545  S
C1401      H1406   1.088       .  S
C1402      C1990   1.583   1_545  S
C1402      C1459   1.504       .  S
C1407      C1408   1.542       .  S
C1407      C1413   1.505       .  S
C1408      H1415   1.084       .  S
C1409      C1410   1.548       .  S
C1410      C1414   1.583       .  S
C1410      C1412   1.553       .  S
C1410      H1416   1.110       .  S
C1411      C1412   1.371       .  D
C1413      H1418   1.089       .  S
C1414      C1457   1.501       .  S
C1419      C1420   1.505       .  S
C1419      C1425   1.511       .  S
C1419      C1423   1.525       .  S
C1419      C1743   1.498   1_554  S
C1420      H1427   1.088       .  S
C1420      C1421   1.359       .  D
C1421      C1422   1.556       .  S
C1422      C1426   1.557       .  S
C1422      C1424   1.586       .  S
C1422      H1428   1.107       .  S
C1423      H1725   1.078   1_554  S
C1423      C1424   1.388       .  D
C1424      C1436   1.554       .  S
C1425      H1430   1.088       .  S
C1425      C1426   1.361       .  D
H1429      C1719   1.076       .  S
C1431      C1432   1.524       .  S
C1431      C1437   1.526       .  S
C1431      C1435   1.521       .  S
C1431      C1760   1.503   1_554  S
C1432      H1439   1.087       .  S
C1432      C1433   1.358       .  D
C1433      C1434   1.573       .  S
C1434      C1438   1.570       .  S
C1434      C1436   1.587       .  S
C1434      H1440   1.106       .  S
C1435      H1737   1.078   1_554  S
C1435      C1436   1.379       .  D
C1437      H1442   1.087       .  S
C1437      C1438   1.359       .  D
H1441      C1731   1.077       .  S
O1443      C1446   1.271       .  A
O1443     Cd1448   2.474       .  S
C1444      C1476   1.484       .  S
C1444      O1453   1.262       .  A
C1444      O1449   1.274       .  A
O1445      C1451   1.269       .  A
O1445     Cd1448   2.361       .  S
C1446      O1454   1.263       .  A
C1447      C1715   1.497       .  S
C1447      O1452   1.264       .  A
C1447      O1450   1.271       .  A
Cd1448     O1455   2.216       .  S
Cd1448     O1454   2.445       .  S
Cd1448     O1453   2.544       .  S
Cd1448     O1449   2.384       .  S
Cd1448     O1452   2.372       .  S
Cd1448     O1450   2.487       .  S
C1451      O1455   1.260       .  A
C1451      C1460   1.402       .  S
C1457      O1466   1.259       .  A
O1458      C1464   1.262   1_455  A
C1459      O1467   1.261       .  A
C1460      O1465   1.267       .  A
C1460      O1463   1.265       .  A
Cd1461     O1467   2.593       .  S
Cd1461     O1466   2.588       .  S
Cd1461     O1465   2.350       .  S
Cd1461     O1463   2.222       .  S
C1464      C1727   1.501       .  S
C1464      O1468   1.268       .  A
C1469      C1470   1.531       .  S
C1469      C1475   1.507       .  S
C1469      C1473   1.542       .  S
C1470      H1477   1.086       .  S
C1470      C1471   1.374       .  D
C1471      C1472   1.542       .  S
C1472      C1476   1.569       .  S
C1472      C1474   1.533       .  S
C1472      H1478   1.111       .  S
C1473      H1479   1.086       .  S
C1473      C1474   1.382       .  D
C1475      H1480   1.086       .  S
C1475      C1476   1.344       .  D
C1481      C1482   1.534       .  S
C1481      C1487   1.503       .  S
C1481      C1485   1.513       .  S
C1481      C1542   1.484       .  S
C1482      H1489   1.086       .  S
C1482      C1483   1.375       .  D
C1483      C1484   1.548       .  S
C1483      C1669   1.487       .  S
C1484      C1488   1.586       .  S
C1484      C1486   1.551       .  S
C1484      H1490   1.110       .  S
C1485      H1491   1.087       .  S
C1485      C1486   1.362       .  D
C1486      C1717   1.472       .  S
C1487      H1492   1.088       .  S
C1487      C1488   1.350       .  D
C1488      C1580   1.502       .  S
C1493      C1593   1.526       .  S
C1494      C1495   1.380       .  D
C1495      C1496   1.548       .  S
C1495      C1729   1.496       .  S
C1496      C1500   1.586       .  S
C1496      C1498   1.556       .  S
C1496      H1502   1.111       .  S
C1497      H1503   1.086       .  S
C1497      C1498   1.380       .  D
C1498      C1657   1.512       .  S
C1499      C1500   1.350       .  D
C1500      C2149   1.508   1_545  S
C1505      C1582   1.521       .  S
C1506      H1513   1.087       .  S
C1506      C1507   1.379       .  D
C1507      C1508   1.550       .  S
C1507      C1674   1.505       .  S
C1508      C1512   1.584       .  S
C1508      C1510   1.542       .  S
C1508      H1514   1.111       .  S
C1509      C1510   1.384       .  D
C1510      C1734   1.493       .  S
C1511      C1512   1.350       .  D
C1512      C1555   1.504       .  S
C1517      C1518   1.527       .  S
C1517      C1523   1.524       .  S
C1517      C1521   1.523       .  S
C1518      C1519   1.360       .  D
C1519      C1520   1.561       .  S
C1519      C1705   1.487       .  S
C1520      C1524   1.571       .  S
C1520      C1522   1.578       .  S
C1520      H1526   1.107       .  S
C1521      C1522   1.382       .  D
C1522      C1534   1.546       .  S
C1523      C1524   1.359       .  D
C1524      C1696   1.495       .  S
C1529      C1530   1.519       .  S
C1529      C1535   1.514       .  S
C1529      C1533   1.518       .  S
C1530      H1537   1.088       .  S
C1530      C1531   1.356       .  D
C1531      C1532   1.558       .  S
C1531      C1684   1.485       .  S
C1532      C1536   1.567       .  S
C1532      C1534   1.585       .  S
C1532      H1538   1.106       .  S
C1533      C1534   1.383       .  D
C1535      H1540   1.088       .  S
C1535      C1536   1.352       .  D
C1536      C1770   1.477       .  S
O1541      C1544   1.269       .  A
O1541     Cd1546   2.411       .  S
C1542      O1551   1.264       .  A
C1542      O1547   1.269       .  A
O1543      C1549   1.263       .  A
O1543     Cd1546   2.318       .  S
C1544      C1567   1.489       .  S
C1544      O1552   1.264       .  A
C1545      O1550   1.267       .  A
C1545      O1548   1.258       .  A
C1545      C1562   1.405       .  S
Cd1546     O1553   2.461       .  S
Cd1546     O1552   2.390       .  S
Cd1546     O1551   2.374       .  S
Cd1546     O1547   2.397       .  S
Cd1546     O1550   2.392       .  S
Cd1546     O1548   2.219       .  S
C1549      O1553   1.272       .  A
O1554      C1557   1.274       .  A
O1554     Cd1559   2.478       .  S
C1555      O1564   1.259       .  A
C1555      O1560   1.274       .  A
O1556      C1562   1.268       .  A
O1556     Cd1559   2.368       .  S
C1557      C2092   1.505       .  S
C1557      O1565   1.260       .  A
C1558      O1561   1.269       .  A
Cd1559     O1566   2.214       .  S
Cd1559     O1565   2.596       .  S
Cd1559     O1564   2.587       .  S
Cd1559     O1560   2.484       .  S
Cd1559     O1563   2.439       .  S
C1562      O1566   1.265       .  A
C1567      C2160   1.518       .  S
C1567      C2165   1.502       .  S
C1567      C2163   1.541       .  S
C1568      C2159   1.519       .  S
C1568      H1575   1.087       .  S
C1568      C1569   1.362       .  D
C1569      C1570   1.551       .  S
C1569      C1722   1.476       .  S
C1570      C1574   1.586       .  S
C1570      C1572   1.547       .  S
C1570      H1576   1.110       .  S
C1571      C2159   1.539       .  S
C1571      H2169   1.086   1_545  S
C1571      C1572   1.378       .  D
C1572      C1662   1.492       .  S
C1573      C2159   1.502       .  S
C1573      H2170   1.088   1_545  S
C1573      C1574   1.350       .  D
C1574      C1595   1.502       .  S
H1577      C2163   1.086       .  S
H1578      C2165   1.088       .  S
O1579      C1582   1.267       .  A
O1579     Cd1584   2.567       .  S
C1580      O1589   1.260       .  A
C1580      O1585   1.274       .  A
O1581      C1587   1.258       .  A
O1581     Cd1584   2.371       .  S
C1582      O1590   1.268       .  A
C1583      O1588   1.264       .  A
C1583      O1586   1.262       .  A
C1583      C1596   1.411       .  S
Cd1584     O1591   2.520       .  S
Cd1584     O1590   2.438       .  S
Cd1584     O1589   2.591       .  S
Cd1584     O1585   2.433       .  S
Cd1584     O1588   2.353       .  S
Cd1584     O1586   2.328       .  S
C1587      C1617   1.496       .  S
C1587      O1591   1.270       .  A
O1592      C1595   1.273       .  A
O1592     Cd1597   2.427       .  S
C1593      O1602   1.268       .  A
C1593      O1598   1.267       .  A
O1594      C2192   1.258       .  A
O1594     Cd1597   2.385       .  S
C1595      O1603   1.261       .  A
C1596      O1601   1.264       .  A
C1596      O1599   1.262       .  A
Cd1597     O2196   2.504   1_545  S
Cd1597     O1603   2.591       .  S
Cd1597     O1602   2.471       .  S
Cd1597     O1598   2.566       .  S
Cd1597     O1601   2.351       .  S
Cd1597     O1599   2.331       .  S
C1600      C1605   1.494       .  S
C1600      O2186   1.257       .  A
C1600      O1604   1.270       .  A
O1604     Cd2189   2.506       .  S
C1605      C1606   1.517       .  S
C1605      C1611   1.524       .  S
C1605      C1609   1.517       .  S
C1606      H2205   1.087       .  S
C1606      C1607   1.355       .  D
C1607      C1608   1.580       .  S
C1607      C1681   1.497       .  S
C1608      C1612   1.577       .  S
C1608      C1610   1.588       .  S
C1608      H1614   1.106       .  S
C1609      H1615   1.077       .  S
C1609      C1610   1.381       .  D
C1610      C1622   1.547       .  S
C1611      H2208   1.087       .  S
C1611      C1612   1.358       .  D
C1612      C1693   1.512       .  S
H1613      C2198   1.087   1_545  S
H1616      C2203   1.088   1_545  S
C1617      C1618   1.515       .  S
C1617      C1623   1.509       .  S
C1617      C1621   1.524       .  S
C1618      H1625   1.088       .  S
C1618      C1619   1.360       .  D
C1619      C1620   1.570       .  S
C1619      C1708   1.494       .  S
C1620      C1624   1.569       .  S
C1620      C1622   1.579       .  S
C1620      H1626   1.107       .  S
C1621      H1627   1.077       .  S
C1621      C1622   1.387       .  D
C1623      H1628   1.088       .  S
C1623      C1624   1.353       .  D
C1624      C1767   1.483       .  S
O1629      C2224   1.268       .  A
O1629     Cd2226   2.571       .  S
C1630      C1686   1.505       .  S
C1630      O1639   1.262       .  A
C1630      O2227   1.273       .  A
O1631      C1637   1.257   1_565  A
O1631     Cd2226   2.384       .  S
C1632      C1691   1.527       .  S
C1632      O2221   1.268       .  A
C1632      O1640   1.269       .  A
C1633      O1638   1.264       .  A
C1633      O1636   1.261       .  A
C1633      C1650   1.413       .  S
Cd1634     O2221   2.574       .  S
Cd1634     O2223   2.391       .  S
Cd1634     O2233   2.511       .  S
Cd1634     O1640   2.463       .  S
Cd1634     O1639   2.594       .  S
Cd1634     O2227   2.438       .  S
Cd1634     O1638   2.344       .  S
Cd1634     O1636   2.355       .  S
O1635      C2222   1.272   1_545  A
O1635     Cd2226   2.425   1_545  S
C1637      C1655   1.498       .  S
C1637      O1641   1.271       .  A
O1641     Cd2226   2.516   1_545  S
O1642      C1645   1.267       .  A
O1642     Cd1647   2.422       .  S
C1643      C1765   1.516       .  S
C1643      O1652   1.260       .  A
C1643      O1648   1.272       .  A
O1644      C1650   1.263       .  A
O1644     Cd1647   2.335       .  S
C1645      C1703   1.509       .  S
C1645      O1653   1.265       .  A
C1646      C1667   1.491       .  S
C1646      O1651   1.258       .  A
C1646      O1649   1.270       .  A
Cd1647     O1654   2.350       .  S
Cd1647     O1653   2.537       .  S
Cd1647     O1652   2.521       .  S
Cd1647     O1648   2.401       .  S
Cd1647     O1651   2.350       .  S
Cd1647     O1649   2.513       .  S
C1650      O1654   1.265       .  A
C1655      C1656   1.526       .  S
C1655      C1661   1.518       .  S
C1655      C1659   1.518       .  S
C1656      H1663   1.087       .  S
C1656      C1657   1.360       .  D
C1657      C1658   1.573       .  S
C1658      C1662   1.576       .  S
C1658      C1660   1.583       .  S
C1658      H1664   1.106       .  S
C1659      H1665   1.080       .  S
C1659      C1660   1.381       .  D
C1660      C1672   1.542       .  S
C1661      H1666   1.087       .  S
C1661      C1662   1.355       .  D
C1667      C1668   1.517       .  S
C1667      C1673   1.514       .  S
C1667      C1671   1.520       .  S
C1668      H1675   1.088       .  S
C1668      C1669   1.354       .  D
C1669      C1670   1.573       .  S
C1670      C1674   1.579       .  S
C1670      C1672   1.580       .  S
C1670      H1676   1.106       .  S
C1671      H1677   1.080       .  S
C1671      C1672   1.385       .  D
C1673      H1678   1.088       .  S
C1673      C1674   1.353       .  D
C1679      C1680   1.541       .  S
C1679      C1685   1.503       .  S
C1679      C1683   1.528   1_545  S
C1679      C1742   1.506       .  S
C1680      H1687   1.086       .  S
C1680      C2273   1.378   1_545  D
C1681      C1682   1.546       .  S
C1681      C2272   1.380       .  D
C1682      C1686   1.585       .  S
C1682      C1684   1.548       .  S
C1682      H1688   1.111       .  S
C1683      H1689   1.087   1_565  S
C1683      C2276   1.369       .  D
C1684      C2275   1.371       .  D
C1685      H1690   1.088       .  S
C1685      C2278   1.352   1_545  D
C1686      C2277   1.352       .  D
C1691      C2289   1.506       .  S
C1691      C1695   1.545       .  S
C1692      C1693   1.381       .  D
C1693      C1694   1.551       .  S
C1694      C2290   1.582       .  S
C1694      C1696   1.544       .  S
C1694      H1700   1.111       .  S
C1695      H1701   1.084       .  S
C1697      C2283   1.507   1_545  S
C1697      H1702   1.089       .  S
C1698      C2286   1.584   1_545  S
C1698      C1755   1.501       .  S
C1703      C1704   1.540       .  S
C1703      C1709   1.509       .  S
C1704      H1711   1.085       .  S
C1705      C1706   1.546       .  S
C1706      C1710   1.580       .  S
C1706      C1708   1.552       .  S
C1706      H1712   1.111       .  S
C1707      C1708   1.371       .  D
C1709      H1714   1.088       .  S
C1710      C1753   1.497       .  S
C1715      C1716   1.505       .  S
C1715      C1721   1.512       .  S
C1715      C1719   1.524       .  S
C1716      H1723   1.088       .  S
C1716      C1717   1.358       .  D
C1717      C1718   1.554       .  S
C1718      C1722   1.558       .  S
C1718      C1720   1.585       .  S
C1718      H1724   1.106       .  S
C1719      C1720   1.386       .  D
C1720      C1732   1.551       .  S
C1721      H1726   1.088       .  S
C1721      C1722   1.363       .  D
C1727      C1728   1.526       .  S
C1727      C1733   1.522       .  S
C1727      C1731   1.522       .  S
C1728      H1735   1.087       .  S
C1728      C1729   1.359       .  D
C1729      C1730   1.568       .  S
C1730      C1734   1.571       .  S
C1730      C1732   1.584       .  S
C1730      H1736   1.107       .  S
C1731      C1732   1.381       .  D
C1733      H1738   1.087       .  S
C1733      C1734   1.356       .  D
O1739      C1742   1.271       .  A
O1739     Cd1744   2.478       .  S
C1740      C1772   1.483       .  S
C1740      O1749   1.262       .  A
C1740      O1745   1.275       .  A
O1741      C1747   1.269       .  A
O1741     Cd1744   2.361       .  S
C1742      O1750   1.262       .  A
C1743      O1748   1.265       .  A
C1743      O1746   1.271       .  A
Cd1744     O1751   2.235       .  S
Cd1744     O1750   2.446       .  S
Cd1744     O1749   2.532       .  S
Cd1744     O1745   2.387       .  S
Cd1744     O1748   2.368       .  S
Cd1744     O1746   2.492       .  S
C1747      O1751   1.262       .  A
C1747      C1756   1.404       .  S
C1753      O1762   1.258       .  A
O1754      C1760   1.262   1_455  A
C1755      O1763   1.260       .  A
C1756      O1761   1.269       .  A
C1756      O1759   1.266       .  A
Cd1757     O1763   2.578       .  S
Cd1757     O1762   2.573       .  S
Cd1757     O1761   2.337       .  S
Cd1757     O1759   2.228       .  S
C1760      O1764   1.269       .  A
C1765      C1766   1.531       .  S
C1765      C1771   1.509       .  S
C1765      C1769   1.543       .  S
C1766      H1773   1.087       .  S
C1766      C1767   1.375       .  D
C1767      C1768   1.538       .  S
C1768      C1772   1.567       .  S
C1768      C1770   1.532       .  S
C1768      H1774   1.111       .  S
C1769      H1775   1.086       .  S
C1769      C1770   1.383       .  D
C1771      H1776   1.087       .  S
C1771      C1772   1.344       .  D
C1777      C1778   1.533       .  S
C1777      C1783   1.507       .  S
C1777      C1781   1.515       .  S
C1777      C1838   1.489       .  S
C1778      H1785   1.086       .  S
C1778      C1779   1.376       .  D
C1779      C1780   1.546       .  S
C1779      C1965   1.483       .  S
C1780      C1784   1.586       .  S
C1780      C1782   1.552       .  S
C1780      H1786   1.110       .  S
C1781      H1787   1.087       .  S
C1781      C1782   1.361       .  D
C1782      C2013   1.475       .  S
C1783      H1788   1.088       .  S
C1783      C1784   1.349       .  D
C1784      C1876   1.504       .  S
C1789      C1889   1.525       .  S
C1790      C1791   1.381       .  D
C1791      C1792   1.545       .  S
C1791      C2025   1.495       .  S
C1792      C1796   1.581       .  S
C1792      C1794   1.551       .  S
C1792      H1798   1.111       .  S
C1793      H1799   1.086       .  S
C1793      C1794   1.380       .  D
C1794      C1953   1.504       .  S
C1795      C1796   1.351       .  D
C1801      C1878   1.523       .  S
C1802      H1809   1.086       .  S
C1802      C1803   1.378       .  D
C1803      C1804   1.555       .  S
C1803      C1970   1.509       .  S
C1804      C1808   1.586       .  S
C1804      C1806   1.547       .  S
C1804      H1810   1.111       .  S
C1805      C1806   1.382       .  D
C1806      C2030   1.495       .  S
C1807      C1808   1.352       .  D
C1808      C1851   1.509       .  S
C1813      C1814   1.526       .  S
C1813      C1819   1.522       .  S
C1813      C1817   1.520       .  S
C1813      C2150   1.499       .  S
C1814      C1815   1.358       .  D
C1815      C1816   1.564       .  S
C1815      C2001   1.490       .  S
C1816      C1820   1.570       .  S
C1816      C1818   1.579       .  S
C1816      H1822   1.107       .  S
C1817      H2119   1.074       .  S
C1817      C1818   1.380       .  D
C1818      C1830   1.544       .  S
C1819      C1820   1.358       .  D
C1820      C1992   1.492       .  S
H1823      C2113   1.077   1_554  S
C1825      C1826   1.517       .  S
C1825      C1831   1.516       .  S
C1825      C1829   1.518       .  S
C1825      C2141   1.487       .  S
C1826      H1833   1.088       .  S
C1826      C1827   1.356       .  D
C1827      C1828   1.558       .  S
C1827      C1980   1.485       .  S
C1828      C1832   1.563       .  S
C1828      C1830   1.583       .  S
C1828      H1834   1.106       .  S
C1829      H2131   1.075       .  S
C1829      C1830   1.384       .  D
C1831      H1836   1.088       .  S
C1831      C1832   1.354       .  D
C1832      C2066   1.475       .  S
H1835      C2125   1.078   1_554  S
O1837      C1840   1.269       .  A
O1837     Cd1842   2.415       .  S
C1838      O1847   1.263       .  A
C1838      O1843   1.270       .  A
O1839      C1845   1.262       .  A
O1839     Cd1842   2.328       .  S
C1840      C1863   1.489   1_565  S
C1840      O1848   1.265       .  A
C1841      O1846   1.267       .  A
C1841      O1844   1.257       .  A
C1841      C1858   1.402       .  S
Cd1842     O1849   2.468       .  S
Cd1842     O1848   2.404       .  S
Cd1842     O1847   2.394       .  S
Cd1842     O1843   2.410       .  S
Cd1842     O1846   2.394       .  S
Cd1842     O1844   2.206       .  S
C1845      C2121   1.485   1_554  S
C1845      O1849   1.272       .  A
O1850      C1853   1.275       .  A
O1850     Cd1855   2.492       .  S
C1851      O1860   1.259       .  A
C1851      O1856   1.273       .  A
O1852      C1858   1.268       .  A
O1852     Cd1855   2.370       .  S
C1853      O1861   1.260       .  A
C1854      C2109   1.506   1_554  S
C1854      O1857   1.269       .  A
Cd1855     O1862   2.200       .  S
Cd1855     O1861   2.594       .  S
Cd1855     O1860   2.613       .  S
Cd1855     O1856   2.478       .  S
Cd1855     O1859   2.432       .  S
C1858      O1862   1.265       .  A
C1864      H1871   1.087       .  S
C1864      C1865   1.361       .  D
C1865      C1866   1.550       .  S
C1865      C2018   1.474       .  S
C1866      C1870   1.585       .  S
C1866      C1868   1.548       .  S
C1866      H1872   1.110       .  S
C1867      C1868   1.378       .  D
C1868      C1958   1.493       .  S
C1869      C1870   1.349       .  D
C1870      C1891   1.501       .  S
O1875      C1878   1.267       .  A
O1875     Cd1880   2.576       .  S
C1876      O1885   1.260       .  A
C1876      O1881   1.275       .  A
O1877      C1883   1.258       .  A
O1877     Cd1880   2.378       .  S
C1878      O1886   1.266       .  A
C1879      O1884   1.263       .  A
C1879      O1882   1.262       .  A
C1879      C1892   1.410       .  S
Cd1880     O1887   2.519       .  S
Cd1880     O1886   2.449       .  S
Cd1880     O1885   2.584       .  S
Cd1880     O1881   2.455       .  S
Cd1880     O1884   2.352       .  S
Cd1880     O1882   2.323       .  S
C1883      C1913   1.497       .  S
C1883      O1887   1.270       .  A
O1888      C1891   1.274       .  A
O1888     Cd1893   2.432       .  S
C1889      O1898   1.267       .  A
C1889      O1894   1.267       .  A
O1890     Cd1893   2.380       .  S
C1891      O1899   1.261       .  A
C1892      O1897   1.264       .  A
C1892      O1895   1.262       .  A
Cd1893     O1899   2.584       .  S
Cd1893     O1898   2.469       .  S
Cd1893     O1894   2.570       .  S
Cd1893     O1897   2.353       .  S
Cd1893     O1895   2.322       .  S
C1896      C1901   1.498   1_545  S
C1896      O1900   1.270   1_545  A
C1901      C1902   1.518       .  S
C1901      C1907   1.525       .  S
C1901      C1905   1.518       .  S
C1902      C1903   1.355       .  D
C1903      C1904   1.578       .  S
C1903      C1977   1.495       .  S
C1904      C1908   1.574       .  S
C1904      C1906   1.586       .  S
C1904      H1910   1.106       .  S
C1905      H1911   1.082       .  S
C1905      C1906   1.380       .  D
C1906      C1918   1.546       .  S
C1907      C1908   1.359       .  D
C1908      C1989   1.510       .  S
C1913      C1914   1.515       .  S
C1913      C1919   1.510       .  S
C1913      C1917   1.522       .  S
C1914      H1921   1.088       .  S
C1914      C1915   1.361       .  D
C1915      C1916   1.570       .  S
C1915      C2004   1.494       .  S
C1916      C1920   1.566       .  S
C1916      C1918   1.581       .  S
C1916      H1922   1.107       .  S
C1917      H1923   1.082       .  S
C1917      C1918   1.385       .  D
C1919      H1924   1.088       .  S
C1919      C1920   1.355       .  D
C1920      C2063   1.483       .  S
C1926      C1982   1.507       .  S
C1926      O1935   1.262       .  A
O1927      C1933   1.258       .  A
C1928      C1987   1.530       .  S
C1928      O1936   1.269   1_565  A
C1929      O1934   1.265       .  A
C1929      O1932   1.260       .  A
C1929      C1946   1.413       .  S
Cd1930     O1936   2.480   1_565  S
Cd1930     O1935   2.607       .  S
Cd1930     O1934   2.360       .  S
Cd1930     O1932   2.335       .  S
C1933      C1951   1.494       .  S
C1933      O1937   1.269       .  A
O1938      C1941   1.267       .  A
O1938     Cd1943   2.425       .  S
C1939      C2061   1.517       .  S
C1939      O1948   1.259       .  A
C1939      O1944   1.273       .  A
O1940      C1946   1.263       .  A
O1940     Cd1943   2.346       .  S
C1941      C1999   1.510       .  S
C1941      O1949   1.265       .  A
C1942      C1963   1.492       .  S
C1942      O1947   1.258       .  A
C1942      O1945   1.270       .  A
Cd1943     O1950   2.329       .  S
Cd1943     O1949   2.535       .  S
Cd1943     O1948   2.524       .  S
Cd1943     O1944   2.408       .  S
Cd1943     O1947   2.352       .  S
Cd1943     O1945   2.515       .  S
C1946      O1950   1.264       .  A
C1951      C1952   1.523       .  S
C1951      C1957   1.518       .  S
C1951      C1955   1.520       .  S
C1952      H1959   1.087       .  S
C1952      C1953   1.357       .  D
C1953      C1954   1.570       .  S
C1954      C1958   1.576       .  S
C1954      C1956   1.580       .  S
C1954      H1960   1.106       .  S
C1955      H1961   1.079       .  S
C1955      C1956   1.382       .  D
C1956      C1968   1.538       .  S
C1957      H1962   1.087       .  S
C1957      C1958   1.355       .  D
C1963      C1964   1.517       .  S
C1963      C1969   1.518       .  S
C1963      C1967   1.520       .  S
C1964      H1971   1.088       .  S
C1964      C1965   1.354       .  D
C1965      C1966   1.569       .  S
C1966      C1970   1.578       .  S
C1966      C1968   1.580       .  S
C1966      H1972   1.107       .  S
C1967      H1973   1.078       .  S
C1967      C1968   1.384       .  D
C1969      H1974   1.088       .  S
C1969      C1970   1.356       .  D
C1975      C1976   1.538       .  S
C1975      C1981   1.507       .  S
C1975      C1979   1.529       .  S
C1975      C2038   1.511       .  S
C1976      H1983   1.086       .  S
C1977      C1978   1.547       .  S
C1978      C1982   1.587       .  S
C1978      C1980   1.550       .  S
C1978      H1984   1.111       .  S
C1979      H1985   1.086       .  S
C1981      H1986   1.088       .  S
C1987      C1991   1.546       .  S
C1988      C1989   1.380       .  D
C1989      C1990   1.552       .  S
C1990      C1992   1.544       .  S
C1990      H1996   1.111       .  S
C1991      H1997   1.084       .  S
C1993      H1998   1.089       .  S
C1994      C2051   1.503       .  S
C1999      C2000   1.540       .  S
C1999      C2005   1.505       .  S
C2000      H2007   1.085       .  S
C2001      C2002   1.547       .  S
C2002      C2006   1.583       .  S
C2002      C2004   1.553       .  S
C2002      H2008   1.110       .  S
C2003      C2004   1.369       .  D
C2005      H2010   1.089       .  S
C2006      C2049   1.500       .  S
C2011      C2012   1.506       .  S
C2011      C2017   1.512       .  S
C2011      C2015   1.526       .  S
C2011      C2335   1.499   1_554  S
C2012      H2019   1.088       .  S
C2012      C2013   1.359       .  D
C2013      C2014   1.556       .  S
C2014      C2018   1.555       .  S
C2014      C2016   1.584       .  S
C2014      H2020   1.107       .  S
C2015      H2317   1.077   1_554  S
C2015      C2016   1.386       .  D
C2016      C2028   1.550       .  S
C2017      H2022   1.088       .  S
C2017      C2018   1.362       .  D
H2021      C2311   1.075       .  S
C2023      C2024   1.526       .  S
C2023      C2029   1.526       .  S
C2023      C2027   1.524       .  S
C2023      C2352   1.507   1_554  S
C2024      H2031   1.087       .  S
C2024      C2025   1.361       .  D
C2025      C2026   1.569       .  S
C2026      C2030   1.566       .  S
C2026      C2028   1.582       .  S
C2026      H2032   1.107       .  S
C2027      H2329   1.078   1_554  S
C2027      C2028   1.380       .  D
C2029      H2034   1.087       .  S
C2029      C2030   1.359       .  D
H2033      C2323   1.076       .  S
O2035      C2038   1.271       .  A
O2035     Cd2040   2.484       .  S
C2036      C2068   1.484       .  S
C2036      O2045   1.262       .  A
C2036      O2041   1.274       .  A
O2037      C2043   1.269       .  A
O2037     Cd2040   2.365       .  S
C2038      O2046   1.262       .  A
C2039      C2307   1.493       .  S
C2039      O2044   1.264       .  A
C2039      O2042   1.270       .  A
Cd2040     O2047   2.208       .  S
Cd2040     O2046   2.462       .  S
Cd2040     O2045   2.550       .  S
Cd2040     O2041   2.384       .  S
Cd2040     O2044   2.368       .  S
Cd2040     O2042   2.473       .  S
C2043      O2047   1.261       .  A
C2043      C2052   1.402       .  S
C2049      O2058   1.258       .  A
O2050      C2056   1.262   1_455  A
C2051      O2059   1.260       .  A
C2052      O2057   1.269       .  A
C2052      O2055   1.266       .  A
Cd2053     O2059   2.597       .  S
Cd2053     O2058   2.582       .  S
Cd2053     O2057   2.348       .  S
Cd2053     O2055   2.205       .  S
C2056      C2319   1.505       .  S
C2056      O2060   1.269       .  A
C2061      C2062   1.532       .  S
C2061      C2067   1.508       .  S
C2061      C2065   1.542       .  S
C2062      H2069   1.087       .  S
C2062      C2063   1.375       .  D
C2063      C2064   1.540       .  S
C2064      C2068   1.567       .  S
C2064      C2066   1.534       .  S
C2064      H2070   1.111       .  S
C2065      H2071   1.086       .  S
C2065      C2066   1.381       .  D
C2067      H2072   1.086       .  S
C2067      C2068   1.344       .  D
C2073      C2074   1.533       .  S
C2073      C2079   1.504       .  S
C2073      C2077   1.514       .  S
C2073      C2134   1.487       .  S
C2074      H2081   1.086       .  S
C2074      C2075   1.376       .  D
C2075      C2076   1.547       .  S
C2075      C2261   1.484       .  S
C2076      C2080   1.585       .  S
C2076      C2078   1.549       .  S
C2076      H2082   1.110       .  S
C2077      H2083   1.088       .  S
C2077      C2078   1.362       .  D
C2078      C2309   1.470       .  S
C2079      H2084   1.088       .  S
C2079      C2080   1.350       .  D
C2080      C2172   1.505       .  S
C2085      C2185   1.527       .  S
C2086      C2087   1.382       .  D
C2087      C2088   1.545       .  S
C2087      C2321   1.496       .  S
C2088      C2092   1.582       .  S
C2088      C2090   1.554       .  S
C2088      H2094   1.111       .  S
C2089      H2095   1.086       .  S
C2089      C2090   1.377       .  D
C2090      C2249   1.506       .  S
C2091      C2092   1.351       .  D
C2097      C2174   1.529       .  S
C2098      H2105   1.086       .  S
C2098      C2099   1.379       .  D
C2099      C2100   1.556       .  S
C2099      C2266   1.512       .  S
C2100      C2104   1.590       .  S
C2100      C2102   1.548       .  S
C2100      H2106   1.111       .  S
C2101      C2102   1.382       .  D
C2102      C2326   1.495       .  S
C2103      C2104   1.349       .  D
C2104      C2147   1.510       .  S
C2109      C2110   1.529       .  S
C2109      C2115   1.525       .  S
C2109      C2113   1.519       .  S
C2110      C2111   1.361       .  D
C2111      C2112   1.563       .  S
C2111      C2297   1.495       .  S
C2112      C2116   1.573       .  S
C2112      C2114   1.579       .  S
C2112      H2118   1.107       .  S
C2113      C2114   1.378       .  D
C2114      C2126   1.541       .  S
C2115      C2116   1.359       .  D
C2116      C2288   1.499       .  S
C2121      C2122   1.520       .  S
C2121      C2127   1.514       .  S
C2121      C2125   1.518       .  S
C2122      H2129   1.088       .  S
C2122      C2123   1.356       .  D
C2123      C2124   1.554       .  S
C2123      C2276   1.482       .  S
C2124      C2128   1.561       .  S
C2124      C2126   1.580       .  S
C2124      H2130   1.106       .  S
C2125      C2126   1.384       .  D
C2127      H2132   1.088       .  S
C2127      C2128   1.353       .  D
C2128      C2362   1.472       .  S
O2133      C2136   1.270       .  A
O2133     Cd2138   2.422       .  S
C2134      O2143   1.264       .  A
C2134      O2139   1.269       .  A
O2135      C2141   1.262       .  A
O2135     Cd2138   2.330       .  S
C2136      C2159   1.491   1_565  S
C2136      O2144   1.263       .  A
C2137      O2142   1.267       .  A
C2137      O2140   1.257       .  A
C2137      C2154   1.406       .  S
Cd2138     O2145   2.478       .  S
Cd2138     O2144   2.389       .  S
Cd2138     O2143   2.385       .  S
Cd2138     O2139   2.415       .  S
Cd2138     O2142   2.404       .  S
Cd2138     O2140   2.211       .  S
C2141      O2145   1.273       .  A
O2146      C2149   1.275       .  A
O2146     Cd2151   2.483       .  S
C2147      O2156   1.259       .  A
C2147      O2152   1.275       .  A
O2148      C2154   1.269       .  A
O2148     Cd2151   2.375       .  S
C2149      O2157   1.260       .  A
C2150      O2153   1.268       .  A
Cd2151     O2158   2.201       .  S
Cd2151     O2157   2.605       .  S
Cd2151     O2156   2.610       .  S
Cd2151     O2152   2.489       .  S
Cd2151     O2155   2.412       .  S
C2154      O2158   1.265       .  A
C2160      H2167   1.087       .  S
C2160      C2161   1.361       .  D
C2161      C2162   1.551       .  S
C2161      C2314   1.474       .  S
C2162      C2166   1.583       .  S
C2162      C2164   1.547       .  S
C2162      H2168   1.110       .  S
C2163      C2164   1.378       .  D
C2164      C2254   1.494       .  S
C2165      C2166   1.350       .  D
C2166      C2187   1.500       .  S
O2171      C2174   1.267       .  A
O2171     Cd2176   2.587       .  S
C2172      O2181   1.261       .  A
C2172      O2177   1.274       .  A
O2173      C2179   1.258       .  A
O2173     Cd2176   2.394       .  S
C2174      O2182   1.268       .  A
C2175      O2180   1.263       .  A
C2175      O2178   1.262       .  A
C2175      C2188   1.412       .  S
Cd2176     O2183   2.536       .  S
Cd2176     O2182   2.469       .  S
Cd2176     O2181   2.603       .  S
Cd2176     O2177   2.444       .  S
Cd2176     O2180   2.365       .  S
Cd2176     O2178   2.328       .  S
C2179      C2209   1.504       .  S
C2179      O2183   1.270       .  A
O2184      C2187   1.274       .  A
O2184     Cd2189   2.427       .  S
C2185      O2194   1.267       .  A
C2185      O2190   1.267       .  A
O2186     Cd2189   2.374       .  S
C2187      O2195   1.261       .  A
C2188      O2193   1.264       .  A
C2188      O2191   1.262       .  A
Cd2189     O2195   2.581       .  S
Cd2189     O2194   2.471       .  S
Cd2189     O2190   2.573       .  S
Cd2189     O2193   2.357       .  S
Cd2189     O2191   2.329       .  S
C2192      C2197   1.496   1_545  S
C2192      O2196   1.269   1_545  A
C2197      C2198   1.518       .  S
C2197      C2203   1.523       .  S
C2197      C2201   1.520       .  S
C2198      C2199   1.356       .  D
C2199      C2200   1.576       .  S
C2199      C2273   1.494       .  S
C2200      C2204   1.576       .  S
C2200      C2202   1.587       .  S
C2200      H2206   1.105       .  S
C2201      H2207   1.075       .  S
C2201      C2202   1.382       .  D
C2202      C2214   1.547       .  S
C2203      C2204   1.357       .  D
C2204      C2285   1.510       .  S
C2209      C2210   1.517       .  S
C2209      C2215   1.513       .  S
C2209      C2213   1.526       .  S
C2210      H2217   1.088       .  S
C2210      C2211   1.361       .  D
C2211      C2212   1.568       .  S
C2211      C2300   1.498       .  S
C2212      C2216   1.567       .  S
C2212      C2214   1.580       .  S
C2212      H2218   1.107       .  S
C2213      H2219   1.076       .  S
C2213      C2214   1.387       .  D
C2215      H2220   1.088       .  S
C2215      C2216   1.358       .  D
C2216      C2359   1.486       .  S
C2222      C2278   1.504       .  S
C2222      O2231   1.262       .  A
O2223      C2229   1.257       .  A
C2224      C2283   1.527       .  S
C2224      O2232   1.268   1_565  A
C2225      O2230   1.265       .  A
C2225      O2228   1.260       .  A
C2225      C2242   1.414       .  S
Cd2226     O2232   2.466   1_565  S
Cd2226     O2231   2.604       .  S
Cd2226     O2230   2.374       .  S
Cd2226     O2228   2.322       .  S
C2229      C2247   1.499       .  S
C2229      O2233   1.271       .  A
O2234      C2237   1.266       .  A
O2234     Cd2239   2.430       .  S
C2235      C2357   1.516       .  S
C2235      O2244   1.260       .  A
C2235      O2240   1.272       .  A
O2236      C2242   1.263       .  A
O2236     Cd2239   2.360       .  S
C2237      C2295   1.510       .  S
C2237      O2245   1.265       .  A
C2238      C2259   1.495       .  S
C2238      O2243   1.258       .  A
C2238      O2241   1.270       .  A
Cd2239     O2246   2.331       .  S
Cd2239     O2245   2.537       .  S
Cd2239     O2244   2.528       .  S
Cd2239     O2240   2.406       .  S
Cd2239     O2243   2.351       .  S
Cd2239     O2241   2.526       .  S
C2242      O2246   1.265       .  A
C2247      C2248   1.523       .  S
C2247      C2253   1.521       .  S
C2247      C2251   1.519       .  S
C2248      H2255   1.087       .  S
C2248      C2249   1.359       .  D
C2249      C2250   1.570       .  S
C2250      C2254   1.576       .  S
C2250      C2252   1.583       .  S
C2250      H2256   1.106       .  S
C2251      H2257   1.078       .  S
C2251      C2252   1.380       .  D
C2252      C2264   1.543       .  S
C2253      H2258   1.087       .  S
C2253      C2254   1.358       .  D
C2259      C2260   1.516       .  S
C2259      C2265   1.518       .  S
C2259      C2263   1.522       .  S
C2260      H2267   1.088       .  S
C2260      C2261   1.353       .  D
C2261      C2262   1.571       .  S
C2262      C2266   1.580       .  S
C2262      C2264   1.582       .  S
C2262      H2268   1.106       .  S
C2263      H2269   1.078       .  S
C2263      C2264   1.387       .  D
C2265      H2270   1.088       .  S
C2265      C2266   1.355       .  D
C2271      C2272   1.542       .  S
C2271      C2277   1.504       .  S
C2271      C2275   1.531       .  S
C2271      C2334   1.512       .  S
C2272      H2279   1.086       .  S
C2273      C2274   1.547       .  S
C2274      C2278   1.583       .  S
C2274      C2276   1.549       .  S
C2274      H2280   1.111       .  S
C2275      H2281   1.086       .  S
C2277      H2282   1.088       .  S
C2283      C2287   1.545       .  S
C2284      C2285   1.380       .  D
C2285      C2286   1.552       .  S
C2286      C2288   1.546       .  S
C2286      H2292   1.111       .  S
C2287      H2293   1.084       .  S
C2289      H2294   1.089       .  S
C2290      C2347   1.502       .  S
C2295      C2296   1.541       .  S
C2295      C2301   1.509       .  S
C2296      H2303   1.084       .  S
C2297      C2298   1.553       .  S
C2298      C2302   1.587       .  S
C2298      C2300   1.556       .  S
C2298      H2304   1.110       .  S
C2299      C2300   1.370       .  D
C2301      H2306   1.088       .  S
C2302      C2345   1.505       .  S
C2307      C2308   1.503       .  S
C2307      C2313   1.512       .  S
C2307      C2311   1.525       .  S
C2308      H2315   1.088       .  S
C2308      C2309   1.357       .  D
C2309      C2310   1.554       .  S
C2310      C2314   1.555       .  S
C2310      C2312   1.582       .  S
C2310      H2316   1.106       .  S
C2311      C2312   1.386       .  D
C2312      C2324   1.547       .  S
C2313      H2318   1.088       .  S
C2313      C2314   1.362       .  D
C2319      C2320   1.527       .  S
C2319      C2325   1.526       .  S
C2319      C2323   1.522       .  S
C2320      H2327   1.087       .  S
C2320      C2321   1.360       .  D
C2321      C2322   1.569       .  S
C2322      C2326   1.567       .  S
C2322      C2324   1.582       .  S
C2322      H2328   1.107       .  S
C2323      C2324   1.380       .  D
C2325      H2330   1.087       .  S
C2325      C2326   1.358       .  D
O2331      C2334   1.272       .  A
O2331     Cd2336   2.490       .  S
C2332      C2364   1.487       .  S
C2332      O2341   1.262       .  A
C2332      O2337   1.274       .  A
O2333      C2339   1.269       .  A
O2333     Cd2336   2.355       .  S
C2334      O2342   1.261       .  A
C2335      O2340   1.265       .  A
C2335      O2338   1.271       .  A
Cd2336     O2343   2.222       .  S
Cd2336     O2342   2.462       .  S
Cd2336     O2341   2.549       .  S
Cd2336     O2337   2.398       .  S
Cd2336     O2340   2.387       .  S
Cd2336     O2338   2.483       .  S
C2339      O2343   1.262       .  A
C2339      C2348   1.402       .  S
C2345      O2354   1.259       .  A
O2346      C2352   1.263   1_455  A
C2347      O2355   1.261       .  A
C2348      O2353   1.268       .  A
C2348      O2351   1.266       .  A
Cd2349     O2355   2.585       .  S
Cd2349     O2354   2.603       .  S
Cd2349     O2353   2.336       .  S
Cd2349     O2351   2.223       .  S
C2352      O2356   1.268       .  A
C2357      C2358   1.531       .  S
C2357      C2363   1.511       .  S
C2357      C2361   1.542       .  S
C2358      H2365   1.087       .  S
C2358      C2359   1.373       .  D
C2359      C2360   1.541       .  S
C2360      C2364   1.567       .  S
C2360      C2362   1.533       .  S
C2360      H2366   1.111       .  S
C2361      H2367   1.086       .  S
C2361      C2362   1.382       .  D
C2363      H2368   1.086       .  S
C2363      C2364   1.346       .  D
