geometry optimzed in LAMMPS
_audit_creation_date              2020-12-01 
_audit_creation_method            'lammps2cif' 
_symmetry_space_group_name_H-M    'P1' 
_symmetry_Int_Tables_number       1 
_symmetry_cell_setting            triclinic 
loop_ 
_symmetry_equiv_pos_as_xyz 
  x,y,z 
_cell_length_a                    32.1571457 
_cell_length_b                    31.629259322347863 
_cell_length_c                    51.22736014437068 
_cell_angle_alpha                 91.82850920516596 
_cell_angle_beta                  89.16344062014795 
_cell_angle_gamma                 119.52628732534932 
loop_ 
_atom_site_label 
_atom_site_type_symbol 
_atom_site_fract_x 
_atom_site_fract_y 
_atom_site_fract_z 
_atom_site_charge 
N1          N  0.02300512  0.09439362  0.08377404    -0.02300
C2          C  0.04500520  0.10758551  0.10764590     0.00300
C3          C  0.06109811  0.07539754  0.11342382    -0.22600
C4          C  0.05607968  0.04787331  0.09138235    -0.22800
C5          C  0.03287592  0.06029133  0.07352798     0.00200
H6          H  0.08352177  0.07867054  0.12980554     0.14000
H7          H  0.07103311  0.02424160  0.08826840     0.14000
N8          N  0.28190262  0.19418633  0.06787777    -0.02300
C9          C  0.32165737  0.22973527  0.05570350     0.00300
C10         C  0.35714079  0.25716235  0.07402495    -0.22600
C11         C  0.33599428  0.24710376  0.09777893    -0.22800
C12         C  0.28944830  0.21174741  0.09317823     0.00200
H13         H  0.39240841  0.28719527  0.07026704     0.14000
H14         H  0.35150465  0.26666569  0.11596472     0.14000
N15         N  0.18681738  0.01017290  0.05556128    -0.02300
C16         C  0.18543289  0.00183000  0.02913693     0.00300
C17         C  0.18959982  0.29436989  0.02306903    -0.22600
C18         C  0.18287889  0.27083459  0.04552333    -0.22800
C19         C  0.17793909  0.29944340  0.06468843     0.00200
H20         H  0.18573769  0.27704876  0.00403163     0.14000
H21         H  0.17782723  0.23458195  0.04740039     0.14000
C22         C  0.22813117  0.05542598  0.06530111     0.04300
C23         C  0.23216120  0.10206905  0.06204724    -0.11800
C24         C  0.27667622  0.14547984  0.06648025     0.01800
C25         C  0.31707601  0.14107850  0.07290566    -0.10400
C26         C  0.31391196  0.09664678  0.07695995     0.04300
C27         C  0.26922299  0.05420201  0.07397949    -0.09800
H28         H  0.20129002  0.10448234  0.05603081     0.09900
H29         H  0.35173296  0.17286320  0.07575928     0.07400
H30         H  0.26724194  0.01964379  0.07720542     0.07300
N31         N  0.20469704  0.30103032  0.91986931    -0.02300
C32         C  0.22436972  0.31145136  0.94437794     0.00300
C33         C  0.24159138  0.02697491  0.95038901    -0.22600
C34         C  0.23692104  0.04798717  0.92856969    -0.22800
C35         C  0.21482393  0.01130578  0.91013483     0.00200
H36         H  0.26325465  0.04698174  0.96718362     0.14000
H37         H  0.25104041  0.08632183  0.92596267     0.14000
N38         N  0.13163671  0.12229484  0.90952936    -0.02300
C39         C  0.17442140  0.13181455  0.89856059     0.00300
C40         C  0.20852749  0.14354773  0.91770634    -0.22600
C41         C  0.18426697  0.13213179  0.94082301    -0.22800
C42         C  0.13569642  0.11079347  0.93457648     0.00200
H43         H  0.24525476  0.15214277  0.91495630     0.14000
H44         H  0.19933032  0.12856483  0.95884991     0.14000
C45         C  0.12543906  0.16478934  0.90796571     0.04300
C46         C  0.16318719  0.21069707  0.91734866    -0.11800
C47         C  0.16577490  0.25398210  0.91089880     0.01800
C48         C  0.12728856  0.25049816  0.89716209    -0.10400
C49         C  0.08551093  0.20751672  0.89169491     0.04300
C50         C  0.08514397  0.16320211  0.89574800    -0.09800
H51         H  0.19271999  0.21341290  0.92823717     0.09900
H52         H  0.12661976  0.28144550  0.89175313     0.07400
H53         H  0.05487232  0.12882581  0.88966371     0.07300
N54         N  0.04593210  0.21246145  0.88173767    -0.02300
C55         C  0.03036184  0.20261773  0.85663016     0.00300
C56         C  0.01251049  0.23257449  0.84952107    -0.22600
C57         C  0.01618205  0.26137291  0.87067407    -0.22800
C58         C  0.03674546  0.24867164  0.88993079     0.00200
H59         H  0.32613171  0.22934099  0.83192948     0.14000
H60         H  0.00377109  0.28755360  0.87215996     0.14000
O61         O  0.24959455  0.27418007  0.97596810    -0.79700
O62         O  0.12134948  0.01691228  0.02065578    -0.64400
O63         O  0.01099320  0.00698609  0.98829532    -1.11000
C64         C  0.04565701  0.27160517  0.91608049     1.07200
O65         O  0.15325588  0.99437685  0.98783647    -0.77600
O66         O  0.12865882  0.04594213  0.95804505    -0.65200
Ni67       Ni  0.28476146  0.97718190  0.00709466     1.34900
C68         C  0.10515489  0.06104934  0.94548449     0.85900
O69         O  0.06206707  0.05075553  0.03261070    -0.78100
O70         O  0.31550300  0.01372205  0.03875158    -0.88400
C71         C  0.15261984  0.00715599  0.01149849     0.85500
O72         O  0.28648850  0.25463754  0.02129000    -0.66600
O73         O  0.08754560  0.30284023  0.92304972    -0.85900
C74         C  0.32331000  0.25728805  0.03206177     0.86300
C75         C  0.02515932  0.04183125  0.04634137     1.07900
H76         H  0.04789988  0.26663831  0.98265304     0.39700
O77         O  0.06085705  0.29935733  0.97655886    -1.08600
O78         O  0.05975706  0.03345168  0.94120243    -0.65200
Ni79       Ni  0.01243685  0.30447585  0.95834058     1.26300
O80         O  0.03181413  0.28990887  0.02625453    -0.65400
O81         O  0.01029231  0.26373238  0.92997512    -0.77700
C82         C  0.25603619  0.29384003  0.95376689     0.85700
O83         O  0.29591056  0.30952432  0.94231047    -0.64900
Ni84       Ni  0.11688274  0.31534634  0.95697065     1.27400
Ni85       Ni  0.06490857  0.01078159  0.00459371     1.26100
H86         H  0.01807670  0.03915940  0.98348839     0.40200
N87         N  0.22167724  0.21449102  0.73001079    -0.02300
C88         C  0.18869300  0.20086387  0.71054068     0.00300
C89         C  0.16141803  0.15056339  0.70909664    -0.22600
C90         C  0.17537040  0.13316331  0.72898587    -0.22800
C91         C  0.21262742  0.17255379  0.74133597     0.00200
H92         H  0.12906996  0.12895640  0.69790487     0.14000
H93         H  0.15622712  0.09633392  0.73575023     0.14000
N94         N  0.05630657  0.30904653  0.75503764    -0.02300
C95         C  0.05844181  0.97413999  0.78161151     0.00300
C96         C  0.05861846  0.26545937  0.78858842    -0.22600
C97         C  0.06360181  0.24397059  0.76635617    -0.22800
C98         C  0.06455214  0.27245393  0.74655429     0.00200
H99         H  0.06704620  0.92456228  0.80760366     0.14000
H100        H  0.07127757  0.21426326  0.76499436     0.14000
N101        N  0.29613279  0.05844579  0.72907475    -0.02300
C102        C  0.25667672  0.05850619  0.73924515     0.00300
C103        C  0.22694477  0.05706631  0.71969197    -0.22600
C104        C  0.91753752  0.06241476  0.69675348    -0.22800
C105        C  0.96071326  0.06594205  0.70300882     0.00200
H106        H  0.19435432  0.05839214  0.72201013     0.14000
H107        H  0.90806529  0.07143071  0.67837917     0.14000
C108        C  0.01529821  0.97686921  0.74411305     0.04300
C109        C  0.01261789  0.02019237  0.74176627    -0.11800
C110        C  0.96808804  0.01691272  0.73553428     0.01800
C111        C  0.26018717  0.97057611  0.73412579    -0.10400
C112        C  0.26302050  0.26162999  0.73461376     0.04300
C113        C  0.97417540  0.26544899  0.73824076    -0.09800
H114        H  0.04417159  0.05535821  0.74476136     0.09900
H115        H  0.22558039  0.96763805  0.73203529     0.07400
H116        H  0.97649996  0.23261690  0.73704042     0.07300
O117        O  0.00595576  0.14602501  0.82139662    -0.79700
O118        O  0.12903068  0.04885930  0.78713031    -0.64400
O119        O  0.24870312  0.13123728  0.81944166    -1.11000
C120        C  0.20464599  0.02064758  0.88370091     1.07200
O121        O  0.08651977  0.01349590  0.82248112    -0.77600
O122        O  0.14290989  0.08462853  0.85926758    -0.65200
Ni123      Ni  0.30414159  0.16157150  0.79738584     1.34900
C124        C  0.17955434  0.11090692  0.87322740     0.85900
O125        O  0.19427136  0.14179960  0.78260195    -0.78100
O126        O  0.27137227  0.17708768  0.77088148    -0.88400
C127        C  0.09161859  0.01645376  0.79780272     0.85500
O128        O  0.29268839  0.10513615  0.77738283    -0.66600
O129        O  0.16648517  0.02237405  0.88028054    -0.85900
C130        C  0.25393926  0.07638161  0.76588630     0.86300
C131        C  0.22806481  0.16651090  0.76705243     1.07900
H132        H  0.18378159  0.01549569  0.81685816     0.39700
O133        O  0.18385306  0.04247411  0.82631522    -1.08600
O134        O  0.21916492  0.11127787  0.86910276    -0.65200
Ni135      Ni  0.24383159  0.08277924  0.84298018     1.26300
O136        O  0.21332485  0.06836310  0.77452376    -0.65400
O137        O  0.23642421  0.03368803  0.86623484    -0.77700
C138        C  0.00536918  0.15365620  0.84572807     0.85700
O139        O  0.30395163  0.12384163  0.85901853    -0.64900
Ni140      Ni  0.13028888  0.02044403  0.84989801     1.27400
Ni141      Ni  0.18872293  0.09126133  0.80336037     1.26100
H142        H  0.24679515  0.15697856  0.82906389     0.40200
N143        N  0.15458078  0.10623719  0.56837699    -0.02300
C144        C  0.16157471  0.14949467  0.57912015     0.00300
C145        C  0.17369257  0.18299073  0.55965630    -0.22600
C146        C  0.16117889  0.15658788  0.53666189    -0.22800
C147        C  0.14134973  0.10811999  0.54325994     0.00200
H148        H  0.18271334  0.22064042  0.56190648     0.14000
H149        H  0.15567419  0.16996017  0.51856565     0.14000
N150        N  0.33355499  0.17619633  0.56314321    -0.02300
C151        C  0.03846335  0.18342553  0.57770704     0.00300
C152        C  0.07912916  0.20220882  0.56297574    -0.22600
C153        C  0.06640802  0.20357621  0.53810344    -0.22800
C154        C  0.01861427  0.19036359  0.53862669     0.00200
H155        H  0.11485468  0.21699532  0.56992677     0.14000
H156        H  0.09153075  0.22187874  0.52251057     0.14000
N157        N  0.23732495  0.00805658  0.58443023    -0.02300
C158        C  0.26823836  0.99385818  0.57401316     0.00300
C159        C  0.27502049  0.29789866  0.59095466    -0.22600
C160        C  0.24971970  0.29509166  0.61279285    -0.22800
C161        C  0.22768295  0.98877892  0.60855847     0.00200
H162        H  0.29708585  0.28108561  0.58800050     0.14000
H163        H  0.24582418  0.27357540  0.62963110     0.14000
C164        C  0.19739037  0.10066107  0.57017210     0.04300
C165        C  0.19407667  0.05549609  0.57637598    -0.11800
C166        C  0.23626124  0.05172778  0.57804019     0.01800
C167        C  0.28028523  0.09288899  0.57491066    -0.10400
C168        C  0.28555785  0.13704088  0.56796191     0.04300
C169        C  0.24426069  0.14095194  0.56513296    -0.09800
H170        H  0.15946550  0.02402505  0.57966759     0.09900
H171        H  0.31181287  0.08963673  0.57687562     0.07400
H172        H  0.24929100  0.17570857  0.55943335     0.07300
O173        O  0.00200867  0.09391934  0.66227894    -0.79700
O174        O  0.14765690  0.28409651  0.61785937    -0.64400
O175        O  0.09658567  0.16983799  0.65632348    -1.11000
C176        C  0.07844680  0.26551855  0.72024835     1.07200
O177        O  0.19812062  0.32421355  0.64993767    -0.77600
O178        O  0.18687237  0.26802283  0.69020924    -0.65200
Ni179      Ni  0.05647073  0.10835849  0.63941213     1.34900
C180        C  0.16545818  0.22824341  0.70203691     0.85900
O181        O  0.14185876  0.19684377  0.60816578    -0.78100
O182        O  0.10885605  0.11731951  0.61625613    -0.88400
C183        C  0.18873384  0.31493096  0.62563779     0.85500
O184        O  0.03288600  0.13003363  0.61100212    -0.66600
O185        O  0.12134263  0.29518542  0.71306460    -0.85900
C186        C  0.04045325  0.17215116  0.60525304     0.86300
C187        C  0.13678912  0.15462743  0.60306766     1.07900
H188        H  0.08317698  0.26488359  0.65837397     0.39700
O189        O  0.10494538  0.25416397  0.66397110    -1.08600
O190        O  0.12106169  0.20759369  0.70597107    -0.65200
Ni191      Ni  0.07124706  0.19573997  0.68232794     1.26300
O192        O  0.06239060  0.20807603  0.62063553    -0.65400
O193        O  0.05023528  0.22625600  0.70768656    -0.77700
C194        C  0.00294858  0.09835455  0.68732682     0.85700
O195        O  0.03642798  0.13492588  0.69903976    -0.64900
Ni196      Ni  0.15823086  0.30703568  0.68095595     1.27400
Ni197      Ni  0.12242050  0.22583861  0.63612529     1.26100
H198        H  0.12338932  0.16782951  0.66304474     0.40200
N199        N  0.22901712  0.21887173  0.40965055    -0.02300
C200        C  0.22368511  0.17568593  0.39980679     0.00300
C201        C  0.21224826  0.14329547  0.41978063    -0.22600
C202        C  0.22269967  0.17057992  0.44242667    -0.22800
C203        C  0.24195037  0.21854339  0.43500784     0.00200
H204        H  0.20554521  0.10632937  0.41830772     0.14000
H205        H  0.22849135  0.15859426  0.46092184     0.14000
N206        N  0.04971256  0.14866752  0.41240496    -0.02300
C207        C  0.01185714  0.14054846  0.39707313     0.00300
C208        C  0.30377516  0.11955363  0.41131938    -0.22600
C209        C  0.31569276  0.11932821  0.43648741    -0.22800
C210        C  0.03048522  0.13433072  0.43681810     0.00200
H211        H  0.26798080  0.10190507  0.40416370     0.14000
H212        H  0.29007949  0.10018100  0.45174821     0.14000
N213        N  0.14702741  0.31785860  0.39359379    -0.02300
C214        C  0.11731023  0.33359309  0.40393847     0.00300
C215        C  0.11433003  0.36617721  0.38767547    -0.22600
C216        C  0.14066930  0.03597114  0.36620777    -0.22800
C217        C  0.15937869  0.33914197  0.37009403     0.00200
H218        H  0.09406775  0.05159113  0.39077099     0.14000
H219        H  0.14682136  0.05897170  0.34972828     0.14000
C220        C  0.18607960  0.22411474  0.40691315     0.04300
C221        C  0.13901907  0.18349169  0.41083011    -0.11800
C222        C  0.09780561  0.18786515  0.40812779     0.01800
C223        C  0.10318968  0.23253825  0.40215387    -0.10400
C224        C  0.14742555  0.27373952  0.39974073     0.04300
C225        C  0.18953200  0.26971785  0.40156357    -0.09800
H226        H  0.13396306  0.14834833  0.41581511     0.09900
H227        H  0.07159012  0.23584345  0.40010596     0.07400
H228        H  0.22428767  0.30145966  0.39906480     0.07300
O229        O  0.99895396  0.21200435  0.49880984    -0.79700
O230        O  0.02463146  0.05972262  0.44501440    -0.64400
O231        O  0.04959516  0.30901740  0.48400275    -1.11000
C232        C  0.29577622  0.00772436  0.54924807     1.07200
O233        O  0.05035676  0.11474786  0.47743916    -0.77600
O234        O  0.06846754  0.09609750  0.52579703    -0.65200
Ni235      Ni  0.03985304  0.24867505  0.47003781     1.34900
C236        C  0.09172256  0.07516542  0.53249079     0.85900
O237        O  0.06944729  0.34477406  0.43430015    -0.78100
O238        O  0.08167780  0.28203531  0.44097128    -0.88400
C239        C  0.03960980  0.10296136  0.45340188     0.85500
O240        O  0.31644781  0.23113792  0.45035290    -0.66600
O241        O  0.30368858  0.04538075  0.53667025    -0.85900
C242        C  0.29195064  0.25147255  0.44502250     0.86300
C243        C  0.08820655  0.31878097  0.42805881     1.07900
H244        H  0.30058930  0.33298503  0.48941782     0.39700
O245        O  0.00103224  0.01793142  0.49327084    -1.08600
O246        O  0.07487449  0.02931607  0.52926241    -0.65200
Ni247      Ni  0.01482021  0.31095595  0.51373527     1.26300
O248        O  0.30790540  0.29688929  0.44900429    -0.65400
O249        O  0.31267777  0.31368147  0.54244715    -0.77700
C250        C  0.00979625  0.22274919  0.52285703     0.85700
O251        O  0.02465042  0.26564335  0.53185181    -0.64900
Ni252      Ni  0.01092201  0.07833980  0.50694001     1.27400
Ni253      Ni  0.03516530  0.01533235  0.46341319     1.26100
H254        H  0.08329069  0.32759421  0.48802192     0.40200
N255        N  0.31026187  0.34150650  0.22121154    -0.02300
C256        C  0.30578946  0.38146547  0.22697175     0.00300
C257        C  0.29770583  0.39943991  0.20466297    -0.22600
C258        C  0.29312390  0.36729043  0.18482273    -0.22800
C259        C  0.29688918  0.32970521  0.19586273     0.00200
H260        H  0.28839226  0.42789618  0.20359573     0.14000
H261        H  0.27812174  0.36598422  0.16582049     0.14000
N262        N  0.14730975  0.09329354  0.24670587    -0.02300
C263        C  0.15471086  0.13846328  0.24167076     0.00300
C264        C  0.16335720  0.16590973  0.26439081    -0.22600
C265        C  0.16489826  0.13799513  0.28383754    -0.22800
C266        C  0.15896038  0.09514222  0.27211125     0.00200
H267        H  0.17424363  0.20418297  0.26611755     0.14000
H268        H  0.17890378  0.15176963  0.30322293     0.14000
N269        N  0.05957436  0.24863029  0.23966176    -0.02300
C270        C  0.06178538  0.22853726  0.26246541     0.00300
C271        C  0.06893012  0.18977575  0.25616981    -0.22600
C272        C  0.06682696  0.18400522  0.22947883    -0.22800
C273        C  0.06362039  0.22211405  0.21944509     0.00200
H274        H  0.06820664  0.16363263  0.26957857     0.14000
H275        H  0.07014788  0.15632216  0.21832010     0.14000
C276        C  0.01889466  0.33972715  0.22948622     0.04300
C277        C  0.06302683  0.04975738  0.23218214    -0.11800
C278        C  0.10557254  0.04933337  0.23754484     0.01800
C279        C  0.10368392  0.33758473  0.23951964    -0.10400
C280        C  0.06018393  0.29403412  0.23729925     0.04300
C281        C  0.01789087  0.29508547  0.23205812    -0.09800
H282        H  0.06404260  0.08418531  0.23074175     0.09900
H283        H  0.13590208  0.33619499  0.24353589     0.07400
H284        H  0.31784962  0.26131583  0.22986208     0.07300
O285        O  0.26626818  0.20478975  0.13742317    -0.79700
O286        O  0.13423000  0.26009683  0.19711565    -0.64400
O287        O  0.17709543  0.18635786  0.15774376    -1.11000
C288        C  0.16611332  0.28073966  0.09128550     1.08400
O289        O  0.06985455  0.23146232  0.17252701    -0.77600
O290        O  0.06473405  0.18779615  0.12437977    -0.65200
Ni291      Ni  0.23035021  0.18058132  0.16934819     1.34900
C292        C  0.07903237  0.15900544  0.11571497     0.85900
O293        O  0.15515816  0.19134131  0.21039454    -0.78100
O294        O  0.19698150  0.15304016  0.20158904    -0.88400
C295        C  0.08986058  0.24259403  0.19515382     0.85500
O296        O  0.26874190  0.24523450  0.18492127    -0.66600
O297        O  0.13057430  0.27949200  0.10400078    -0.85900
C298        C  0.25961564  0.27985761  0.18845240     0.86300
C299        C  0.16907078  0.16148233  0.21607446     1.07900
H300        H  0.18209921  0.28752738  0.14940417     0.39700
O301        O  0.15780426  0.25368185  0.14798163    -1.08600
O302        O  0.12303899  0.17080631  0.11493033    -0.65200
Ni303      Ni  0.18336329  0.22203468  0.12726711     1.26300
O304        O  0.21823228  0.27438682  0.18613107    -0.65400
O305        O  0.18924874  0.26000741  0.09843508    -0.77700
C306        C  0.25298027  0.19921816  0.11359698     0.85700
O307        O  0.21162693  0.19073714  0.10735601    -0.64900
Ni308      Ni  0.10099268  0.25413690  0.13813255     1.27400
Ni309      Ni  0.15627696  0.22266303  0.17886231     1.26100
H310        H  0.15054150  0.15374398  0.15564488     0.40200
O311        O  0.18431604  0.32871213  0.32892222    -0.79700
O312        O  0.31866416  0.18933263  0.27667645    -0.64400
O313        O  0.27261965  0.07090477  0.31105432    -1.11000
C314        C  0.24843468  0.17018380  0.37594484     1.07200
O315        O  0.03833718  0.22533488  0.30821276    -0.77600
O316        O  0.02056065  0.19505942  0.36294684    -0.65200
Ni317      Ni  0.22149455  0.34474004  0.29698126     1.34900
C318        C  0.34391963  0.15236085  0.36923670     0.85900
O319        O  0.31044451  0.10157630  0.26173218    -0.78100
O320        O  0.25534667  0.35539350  0.26394691    -0.88400
C321        C  0.02736530  0.21878470  0.28366587     0.85500
O322        O  0.18259607  0.03868530  0.28625618    -0.66600
O323        O  0.27768141  0.20789267  0.36317156    -0.85900
C324        C  0.19438257  0.08106334  0.27888675     0.86300
C325        C  0.29040005  0.05780666  0.25274336     1.07900
H326        H  0.25065353  0.15618725  0.31822770     0.39700
O327        O  0.27850608  0.15335867  0.32191727    -1.08600
O328        O  0.32059117  0.11688883  0.35381592    -0.65200
Ni329      Ni  0.25814209  0.09779246  0.34118586     1.26300
O330        O  0.23700789  0.11446488  0.27690682    -0.65400
O331        O  0.24131422  0.12714017  0.37031241    -0.77700
C332        C  0.19604545  0.00831872  0.35269217     0.85700
O333        O  0.23787213  0.03965728  0.35884604    -0.64900
Ni334      Ni  0.32454030  0.21509654  0.33626296     1.27400
Ni335      Ni  0.29539396  0.12870422  0.29210224     1.26100
H336        H  0.29913298  0.06553935  0.31440486     0.40200
N337        N  0.02300517  0.42772699  0.08377404    -0.02300
C338        C  0.04500526  0.44091883  0.10764588     0.00300
C339        C  0.06109805  0.40873075  0.11342376    -0.22600
C340        C  0.05607961  0.38120644  0.09138232    -0.22800
C341        C  0.03287589  0.39362462  0.07352797     0.00200
H342        H  0.08352169  0.41200373  0.12980549     0.14000
H343        H  0.07103299  0.35757470  0.08826839     0.14000
N344        N  0.28190259  0.52751965  0.06787778    -0.02300
C345        C  0.32165730  0.56306856  0.05570349     0.00300
C346        C  0.35714073  0.59049560  0.07402495    -0.22600
C347        C  0.33599428  0.58043719  0.09777896    -0.22800
C348        C  0.28944827  0.54508080  0.09317824     0.00200
H349        H  0.39240836  0.62052850  0.07026701     0.14000
H350        H  0.35150465  0.59999920  0.11596473     0.14000
N351        N  0.18681751  0.34350626  0.05556126    -0.02300
C352        C  0.18543297  0.33516336  0.02913691     0.00300
C353        C  0.18959990  0.62770337  0.02306900    -0.22600
C354        C  0.18287891  0.60416818  0.04552330    -0.22800
C355        C  0.17793901  0.63277680  0.06468842     0.00200
H356        H  0.18573780  0.61038222  0.00403162     0.14000
H357        H  0.17782732  0.56791554  0.04740034     0.14000
C358        C  0.22813122  0.38875933  0.06530109     0.04300
C359        C  0.23216110  0.43540238  0.06204722    -0.11800
C360        C  0.27667609  0.47881312  0.06648029     0.01800
C361        C  0.31707584  0.47441173  0.07290578    -0.10400
C362        C  0.31391200  0.42998012  0.07695998     0.04300
C363        C  0.26922311  0.38753539  0.07397948    -0.09800
H364        H  0.20128991  0.43781561  0.05603076     0.09900
H365        H  0.35173276  0.50619645  0.07575946     0.07400
H366        H  0.26724213  0.35297720  0.07720539     0.07300
N367        N  0.20469707  0.63436360  0.91986928    -0.02300
C368        C  0.22436965  0.64478461  0.94437793     0.00300
C369        C  0.24159158  0.36030836  0.95038899    -0.22600
C370        C  0.23692117  0.38132074  0.92856970    -0.22800
C371        C  0.21482385  0.34463923  0.91013485     0.00200
H372        H  0.26325484  0.38031505  0.96718363     0.14000
H373        H  0.25104058  0.41965539  0.92596266     0.14000
N374        N  0.13163674  0.45562819  0.90952937    -0.02300
C375        C  0.17442144  0.46514786  0.89856060     0.00300
C376        C  0.20852763  0.47688109  0.91770635    -0.22600
C377        C  0.18426706  0.46546528  0.94082307    -0.22800
C378        C  0.13569643  0.44412687  0.93457651     0.00200
H379        H  0.24525486  0.48547604  0.91495629     0.14000
H380        H  0.19933032  0.46189836  0.95885001     0.14000
C381        C  0.12543901  0.49812262  0.90796569     0.04300
C382        C  0.16318709  0.54403037  0.91734861    -0.11800
C383        C  0.16577487  0.58731540  0.91089877     0.01800
C384        C  0.12728857  0.58383146  0.89716211    -0.10400
C385        C  0.08551092  0.54084999  0.89169491     0.04300
C386        C  0.08514391  0.49653533  0.89574799    -0.09800
H387        H  0.19271991  0.54674621  0.92823710     0.09900
H388        H  0.12661983  0.61477883  0.89175315     0.07400
H389        H  0.05487231  0.46215903  0.88966369     0.07300
N390        N  0.04593215  0.54579477  0.88173766    -0.02300
C391        C  0.03036202  0.53595116  0.85663013     0.00300
C392        C  0.01251071  0.56590797  0.84952104    -0.22600
C393        C  0.01618213  0.59470626  0.87067409    -0.22800
C394        C  0.03674545  0.58200490  0.88993081     0.00200
H395        H  0.32613186  0.56267448  0.83192949     0.14000
H396        H  0.00377112  0.62088691  0.87216001     0.14000
O397        O  0.24959448  0.60751337  0.97596810    -0.79700
O398        O  0.12134950  0.35024561  0.02065579    -0.64400
O399        O  0.01099316  0.34031938  0.98829531    -1.11000
C400        C  0.04565702  0.60493846  0.91608051     1.07200
O401        O  0.15325593  0.32771026  0.98783647    -0.77600
O402        O  0.12865886  0.37927546  0.95804501    -0.65200
Ni403      Ni  0.28476153  0.31051534  0.00709465     1.34900
C404        C  0.10515491  0.39438271  0.94548449     0.85900
O405        O  0.06206699  0.38408881  0.03261070    -0.78100
O406        O  0.31550305  0.34705550  0.03875155    -0.88400
C407        C  0.15261991  0.34048939  0.01149849     0.85500
O408        O  0.28648840  0.58797081  0.02128998    -0.66600
O409        O  0.08754559  0.63617356  0.92304971    -0.85900
C410        C  0.32330991  0.59062136  0.03206176     0.86300
C411        C  0.02515926  0.37516462  0.04634136     1.07900
H412        H  0.04790011  0.59997202  0.98265302     0.39700
O413        O  0.06085712  0.63269077  0.97655886    -1.08600
O414        O  0.05975704  0.36678504  0.94120246    -0.65200
Ni415      Ni  0.01243690  0.63780930  0.95834059     1.26300
O416        O  0.03181412  0.62324218  0.02625450    -0.65400
O417        O  0.01029233  0.59706570  0.92997516    -0.77700
C418        C  0.25603613  0.62717331  0.95376688     0.85700
O419        O  0.29591053  0.64285761  0.94231048    -0.64900
Ni420      Ni  0.11688278  0.64867977  0.95697064     1.27400
Ni421      Ni  0.06490856  0.34411488  0.00459371     1.26100
H422        H  0.01807667  0.37249269  0.98348836     0.40200
N423        N  0.22167717  0.54782437  0.73001083    -0.02300
C424        C  0.18869296  0.53419719  0.71054069     0.00300
C425        C  0.16141801  0.48389669  0.70909660    -0.22600
C426        C  0.17537045  0.46649665  0.72898582    -0.22800
C427        C  0.21262741  0.50588714  0.74133598     0.00200
H428        H  0.12906997  0.46228970  0.69790482     0.14000
H429        H  0.15622723  0.42966725  0.73575017     0.14000
N430        N  0.05630660  0.64237989  0.75503765    -0.02300
C431        C  0.05844178  0.30747326  0.78161152     0.00300
C432        C  0.05861841  0.59879262  0.78858840    -0.22600
C433        C  0.06360176  0.57730380  0.76635614    -0.22800
C434        C  0.06455220  0.60578727  0.74655429     0.00200
H435        H  0.06704632  0.25789564  0.80760366     0.14000
H436        H  0.07127743  0.54759643  0.76499430     0.14000
N437        N  0.29613283  0.39177915  0.72907476    -0.02300
C438        C  0.25667668  0.39183948  0.73924515     0.00300
C439        C  0.22694465  0.39039955  0.71969195    -0.22600
C440        C  0.91753739  0.39574805  0.69675350    -0.22800
C441        C  0.96071312  0.39927540  0.70300881     0.00200
H442        H  0.19435419  0.39172530  0.72201013     0.14000
H443        H  0.90806502  0.40476394  0.67837921     0.14000
C444        C  0.01529817  0.31020249  0.74411304     0.04300
C445        C  0.01261790  0.35352564  0.74176625    -0.11800
C446        C  0.96808803  0.35024605  0.73553426     0.01800
C447        C  0.26018708  0.30390944  0.73412577    -0.10400
C448        C  0.26302046  0.59496330  0.73461378     0.04300
C449        C  0.97417547  0.59878226  0.73824074    -0.09800
H450        H  0.04417163  0.38869141  0.74476135     0.09900
H451        H  0.22558032  0.30097141  0.73203526     0.07400
H452        H  0.97650002  0.56595018  0.73704043     0.07300
O453        O  0.00595585  0.47935835  0.82139662    -0.79700
O454        O  0.12903063  0.38219260  0.78713030    -0.64400
O455        O  0.24870314  0.46457059  0.81944167    -1.11000
C456        C  0.20464592  0.35398093  0.88370090     1.07200
O457        O  0.08651969  0.34682925  0.82248111    -0.77600
O458        O  0.14290987  0.41796178  0.85926758    -0.65200
Ni459      Ni  0.30414160  0.49490477  0.79738583     1.34900
C460        C  0.17955433  0.44424018  0.87322740     0.85900
O461        O  0.19427136  0.47513300  0.78260200    -0.78100
O462        O  0.27137223  0.51042088  0.77088147    -0.88400
C463        C  0.09161851  0.34978709  0.79780271     0.85500
O464        O  0.29268831  0.43846939  0.77738284    -0.66600
O465        O  0.16648506  0.35570730  0.88028048    -0.85900
C466        C  0.25393919  0.40971487  0.76588630     0.86300
C467        C  0.22806479  0.49984422  0.76705244     1.07900
H468        H  0.18378162  0.34882878  0.81685807     0.39700
O469        O  0.18385306  0.37580745  0.82631522    -1.08600
O470        O  0.21916491  0.44461115  0.86910275    -0.65200
Ni471      Ni  0.24383162  0.41611252  0.84298017     1.26300
O472        O  0.21332476  0.40169636  0.77452375    -0.65400
O473        O  0.23642415  0.36702133  0.86623484    -0.77700
C474        C  0.00536921  0.48698960  0.84572806     0.85700
O475        O  0.30395172  0.45717507  0.85901853    -0.64900
Ni476      Ni  0.13028882  0.35377729  0.84989796     1.27400
Ni477      Ni  0.18872291  0.42459461  0.80336037     1.26100
H478        H  0.24679521  0.49031172  0.82906387     0.40200
N479        N  0.15458076  0.43957048  0.56837697    -0.02300
C480        C  0.16157464  0.48282794  0.57912015     0.00300
C481        C  0.17369263  0.51632408  0.55965633    -0.22600
C482        C  0.16117901  0.48992124  0.53666192    -0.22800
C483        C  0.14134973  0.44145334  0.54325993     0.00200
H484        H  0.18271337  0.55397377  0.56190652     0.14000
H485        H  0.15567436  0.50329359  0.51856568     0.14000
N486        N  0.33355503  0.50952961  0.56314322    -0.02300
C487        C  0.03846335  0.51675879  0.57770704     0.00300
C488        C  0.07912917  0.53554212  0.56297571    -0.22600
C489        C  0.06640801  0.53690952  0.53810339    -0.22800
C490        C  0.01861423  0.52369692  0.53862668     0.00200
H491        H  0.11485469  0.55032862  0.56992674     0.14000
H492        H  0.09153069  0.55521199  0.52251050     0.14000
N493        N  0.23732491  0.34138985  0.58443023    -0.02300
C494        C  0.26823837  0.32719151  0.57401319     0.00300
C495        C  0.27502043  0.63123185  0.59095463    -0.22600
C496        C  0.24971958  0.62842487  0.61279283    -0.22800
C497        C  0.22768290  0.32211218  0.60855845     0.00200
H498        H  0.29708587  0.61441889  0.58800049     0.14000
H499        H  0.24582406  0.60690867  0.62963111     0.14000
C500        C  0.19739042  0.43399440  0.57017209     0.04300
C501        C  0.19407678  0.38882950  0.57637596    -0.11800
C502        C  0.23626132  0.38506111  0.57804019     0.01800
C503        C  0.28028536  0.42622226  0.57491069    -0.10400
C504        C  0.28555793  0.47037414  0.56796193     0.04300
C505        C  0.24426072  0.47428520  0.56513299    -0.09800
H506        H  0.15946561  0.35735843  0.57966757     0.09900
H507        H  0.31181296  0.42296996  0.57687568     0.07400
H508        H  0.24929109  0.50904186  0.55943340     0.07300
O509        O  0.00200858  0.42725262  0.66227893    -0.79700
O510        O  0.14765684  0.61742973  0.61785934    -0.64400
O511        O  0.09658571  0.50317128  0.65632349    -1.11000
C512        C  0.07844682  0.59885187  0.72024834     1.07200
O513        O  0.19812055  0.65754686  0.64993765    -0.77600
O514        O  0.18687237  0.60135613  0.69020923    -0.65200
Ni515      Ni  0.05647073  0.44169176  0.63941216     1.34900
C516        C  0.16545817  0.56157672  0.70203693     0.85900
O517        O  0.14185858  0.53017697  0.60816574    -0.78100
O518        O  0.10885607  0.45065276  0.61625617    -0.88400
C519        C  0.18873377  0.64826426  0.62563777     0.85500
O520        O  0.03288607  0.46336689  0.61100210    -0.66600
O521        O  0.12134264  0.62851867  0.71306460    -0.85900
C522        C  0.04045323  0.50548440  0.60525304     0.86300
C523        C  0.13678902  0.48796065  0.60306764     1.07900
H524        H  0.08317717  0.59821684  0.65837401     0.39700
O525        O  0.10494539  0.58749727  0.66397110    -1.08600
O526        O  0.12106168  0.54092701  0.70597110    -0.65200
Ni527      Ni  0.07124708  0.52907325  0.68232795     1.26300
O528        O  0.06239052  0.54140925  0.62063557    -0.65400
O529        O  0.05023528  0.55958929  0.70768656    -0.77700
C530        C  0.00294844  0.43168788  0.68732680     0.85700
O531        O  0.03642787  0.46825917  0.69903974    -0.64900
Ni532      Ni  0.15823087  0.64036896  0.68095595     1.27400
Ni533      Ni  0.12242048  0.55917184  0.63612527     1.26100
H534        H  0.12338942  0.50116286  0.66304472     0.40200
N535        N  0.22901712  0.55220505  0.40965055    -0.02300
C536        C  0.22368507  0.50901923  0.39980677     0.00300
C537        C  0.21224824  0.47662876  0.41978063    -0.22600
C538        C  0.22269961  0.50391316  0.44242669    -0.22800
C539        C  0.24195034  0.55187665  0.43500784     0.00200
H540        H  0.20554524  0.43966269  0.41830772     0.14000
H541        H  0.22849123  0.49192747  0.46092187     0.14000
N542        N  0.04971256  0.48200088  0.41240496    -0.02300
C543        C  0.01185713  0.47388187  0.39707315     0.00300
C544        C  0.30377516  0.45288719  0.41131938    -0.22600
C545        C  0.31569258  0.45266154  0.43648748    -0.22800
C546        C  0.03048519  0.46766403  0.43681809     0.00200
H547        H  0.26798091  0.43523874  0.40416360     0.14000
H548        H  0.29007932  0.43351430  0.45174826     0.14000
N549        N  0.14702732  0.65119190  0.39359374    -0.02300
C550        C  0.11731022  0.66692645  0.40393846     0.00300
C551        C  0.11433009  0.69951066  0.38767550    -0.22600
C552        C  0.14066945  0.36930462  0.36620781    -0.22800
C553        C  0.15937853  0.67247519  0.37009397     0.00200
H554        H  0.09406771  0.38492452  0.39077093     0.14000
H555        H  0.14682165  0.39230521  0.34972831     0.14000
C556        C  0.18607960  0.55744803  0.40691316     0.04300
C557        C  0.13901908  0.51682489  0.41083016    -0.11800
C558        C  0.09780561  0.52119843  0.40812780     0.01800
C559        C  0.10318967  0.56587158  0.40215387    -0.10400
C560        C  0.14742554  0.60707286  0.39974071     0.04300
C561        C  0.18953201  0.60305122  0.40156356    -0.09800
H562        H  0.13396312  0.48168157  0.41581517     0.09900
H563        H  0.07159012  0.56917682  0.40010598     0.07400
H564        H  0.22428768  0.63479308  0.39906477     0.07300
O565        O  0.99895388  0.54533771  0.49880984    -0.79700
O566        O  0.02463139  0.39305594  0.44501441    -0.64400
O567        O  0.04959521  0.64235078  0.48400275    -1.11000
C568        C  0.29577615  0.34105767  0.54924808     1.07200
O569        O  0.05035663  0.44808119  0.47743916    -0.77600
O570        O  0.06846756  0.42943097  0.52579703    -0.65200
Ni571      Ni  0.03985307  0.58200840  0.47003783     1.34900
C572        C  0.09172252  0.40849884  0.53249079     0.85900
O573        O  0.06944732  0.67810743  0.43430015    -0.78100
O574        O  0.08167784  0.61536868  0.44097129    -0.88400
C575        C  0.03960973  0.43629469  0.45340189     0.85500
O576        O  0.31644778  0.56447122  0.45035293    -0.66600
O577        O  0.30368854  0.37871409  0.53667029    -0.85900
C578        C  0.29195060  0.58480584  0.44502251     0.86300
C579        C  0.08820656  0.65211432  0.42805881     1.07900
H580        H  0.30058935  0.66631838  0.48941781     0.39700
O581        O  0.00103217  0.35126467  0.49327084    -1.08600
O582        O  0.07487438  0.36264945  0.52926242    -0.65200
Ni583      Ni  0.01482028  0.64428936  0.51373528     1.26300
O584        O  0.30790540  0.63022260  0.44900429    -0.65400
O585        O  0.31267799  0.64701500  0.54244718    -0.77700
C586        C  0.00979614  0.55608251  0.52285704     0.85700
O587        O  0.02465035  0.59897669  0.53185182    -0.64900
Ni588      Ni  0.01092198  0.41167308  0.50694002     1.27400
Ni589      Ni  0.03516532  0.34866570  0.46341320     1.26100
H590        H  0.08329075  0.66092758  0.48802190     0.40200
N591        N  0.31026182  0.67483980  0.22121153    -0.02300
C592        C  0.30578950  0.71479881  0.22697174     0.00300
C593        C  0.29770603  0.73277325  0.20466295    -0.22600
C594        C  0.29312398  0.70062377  0.18482270    -0.22800
C595        C  0.29688913  0.66303853  0.19586272     0.00200
H596        H  0.28839252  0.76122956  0.20359569     0.14000
H597        H  0.27812179  0.69931761  0.16582047     0.14000
N598        N  0.14730972  0.42662691  0.24670587    -0.02300
C599        C  0.15471083  0.47179663  0.24167075     0.00300
C600        C  0.16335711  0.49924295  0.26439081    -0.22600
C601        C  0.16489833  0.47132854  0.28383757    -0.22800
C602        C  0.15896036  0.42847561  0.27211126     0.00200
H603        H  0.17424348  0.53751617  0.26611755     0.14000
H604        H  0.17890390  0.48510318  0.30322293     0.14000
N605        N  0.05957438  0.58196360  0.23966177    -0.02300
C606        C  0.06178545  0.56187055  0.26246541     0.00300
C607        C  0.06893019  0.52310905  0.25616980    -0.22600
C608        C  0.06682696  0.51733851  0.22947882    -0.22800
C609        C  0.06362037  0.55544733  0.21944509     0.00200
H610        H  0.06820673  0.49696592  0.26957855     0.14000
H611        H  0.07014793  0.48965549  0.21832009     0.14000
C612        C  0.01889474  0.67306063  0.22948618     0.04300
C613        C  0.06302688  0.38309065  0.23218202    -0.11800
C614        C  0.10557260  0.38266669  0.23754480     0.01800
C615        C  0.10368407  0.67091806  0.23951966    -0.10400
C616        C  0.06018402  0.62736749  0.23729927     0.04300
C617        C  0.01789096  0.62841891  0.23205811    -0.09800
H618        H  0.06404266  0.41751854  0.23074157     0.09900
H619        H  0.13590224  0.66952838  0.24353593     0.07400
H620        H  0.31784954  0.59464927  0.22986210     0.07300
O621        O  0.26626814  0.53812297  0.13742317    -0.79700
O622        O  0.13423000  0.59343018  0.19711567    -0.64400
O623        O  0.17709543  0.51969124  0.15774377    -1.11000
C624        C  0.16611331  0.61407300  0.09128549     1.08400
O625        O  0.06985457  0.56479553  0.17252700    -0.77600
O626        O  0.06473412  0.52112941  0.12437978    -0.65200
Ni627      Ni  0.23035018  0.51391467  0.16934819     1.34900
C628        C  0.07903246  0.49233874  0.11571498     0.85900
O629        O  0.15515828  0.52467479  0.21039455    -0.78100
O630        O  0.19698156  0.48637359  0.20158905    -0.88400
C631        C  0.08986057  0.57592731  0.19515383     0.85500
O632        O  0.26874185  0.57856785  0.18492123    -0.66600
O633        O  0.13057426  0.61282527  0.10400078    -0.85900
C634        C  0.25961558  0.61319098  0.18845239     0.86300
C635        C  0.16907086  0.49481579  0.21607447     1.07900
H636        H  0.18209913  0.62086077  0.14940418     0.39700
O637        O  0.15780425  0.58701524  0.14798163    -1.08600
O638        O  0.12303908  0.50413963  0.11493033    -0.65200
Ni639      Ni  0.18336334  0.55536809  0.12726711     1.26300
O640        O  0.21823224  0.60772023  0.18613107    -0.65400
O641        O  0.18924881  0.59334082  0.09843507    -0.77700
C642        C  0.25298024  0.53255145  0.11359698     0.85700
O643        O  0.21162693  0.52407050  0.10735602    -0.64900
Ni644      Ni  0.10099266  0.58747015  0.13813254     1.27400
Ni645      Ni  0.15627698  0.55599645  0.17886232     1.26100
H646        H  0.15054156  0.48707745  0.15564487     0.40200
O647        O  0.18431605  0.66204535  0.32892219    -0.79700
O648        O  0.31866420  0.52266596  0.27667643    -0.64400
O649        O  0.27261959  0.40423805  0.31105431    -1.11000
C650        C  0.24843462  0.50351713  0.37594480     1.07200
O651        O  0.03833721  0.55866811  0.30821277    -0.77600
O652        O  0.02056071  0.52839280  0.36294683    -0.65200
Ni653      Ni  0.22149460  0.67807335  0.29698124     1.34900
C654        C  0.34391967  0.48569425  0.36923668     0.85900
O655        O  0.31044449  0.43490962  0.26173221    -0.78100
O656        O  0.25534664  0.68872690  0.26394687    -0.88400
C657        C  0.02736536  0.55211795  0.28366587     0.85500
O658        O  0.18259596  0.37201859  0.28625615    -0.66600
O659        O  0.27768141  0.54122601  0.36317154    -0.85900
C660        C  0.19438251  0.41439666  0.27888674     0.86300
C661        C  0.29040006  0.39113997  0.25274336     1.07900
H662        H  0.25065328  0.48952063  0.31822765     0.39700
O663        O  0.27850606  0.48669200  0.32191725    -1.08600
O664        O  0.32059119  0.45022219  0.35381591    -0.65200
Ni665      Ni  0.25814204  0.43112577  0.34118584     1.26300
O666        O  0.23700783  0.44779816  0.27690679    -0.65400
O667        O  0.24131414  0.46047349  0.37031236    -0.77700
C668        C  0.19604545  0.34165203  0.35269217     0.85700
O669        O  0.23787216  0.37299055  0.35884601    -0.64900
Ni670      Ni  0.32454031  0.54842986  0.33626294     1.27400
Ni671      Ni  0.29539388  0.46203753  0.29210224     1.26100
H672        H  0.29913270  0.39887258  0.31440481     0.40200
N673        N  0.02300513  0.76106021  0.08377406    -0.02300
C674        C  0.04500526  0.77425213  0.10764588     0.00300
C675        C  0.06109823  0.74206418  0.11342374    -0.22600
C676        C  0.05607988  0.71453985  0.09138231    -0.22800
C677        C  0.03287594  0.72695790  0.07352799     0.00200
H678        H  0.08352192  0.74533729  0.12980547     0.14000
H679        H  0.07103331  0.69090816  0.08826838     0.14000
N680        N  0.28190266  0.86085297  0.06787779    -0.02300
C681        C  0.32165733  0.89640182  0.05570349     0.00300
C682        C  0.35714072  0.92382882  0.07402496    -0.22600
C683        C  0.33599433  0.91377043  0.09777897    -0.22800
C684        C  0.28944833  0.87841406  0.09317825     0.00200
H685        H  0.39240834  0.95386176  0.07026702     0.14000
H686        H  0.35150473  0.93333248  0.11596473     0.14000
N687        N  0.18681747  0.67683965  0.05556126    -0.02300
C688        C  0.18543303  0.66849679  0.02913691     0.00300
C689        C  0.18959988  0.96103666  0.02306902    -0.22600
C690        C  0.18287900  0.93750151  0.04552332    -0.22800
C691        C  0.17793901  0.96611009  0.06468843     0.00200
H692        H  0.18573779  0.94371547  0.00403165     0.14000
H693        H  0.17782743  0.90124886  0.04740036     0.14000
C694        C  0.22813117  0.72209269  0.06530112     0.04300
C695        C  0.23216114  0.76873579  0.06204720    -0.11800
C696        C  0.27667620  0.81214648  0.06648028     0.01800
C697        C  0.31707596  0.80774511  0.07290578    -0.10400
C698        C  0.31391195  0.76331339  0.07695999     0.04300
C699        C  0.26922299  0.72086865  0.07397951    -0.09800
H700        H  0.20129003  0.77114916  0.05603072     0.09900
H701        H  0.35173291  0.83952979  0.07575946     0.07400
H702        H  0.26724192  0.68631041  0.07720540     0.07300
N703        N  0.20469697  0.96769690  0.91986935    -0.02300
C704        C  0.22436957  0.97811796  0.94437799     0.00300
C705        C  0.24159142  0.69364158  0.95038902    -0.22600
C706        C  0.23692120  0.71465401  0.92856970    -0.22800
C707        C  0.21482396  0.67797253  0.91013482     0.00200
H708        H  0.26325456  0.71364823  0.96718369     0.14000
H709        H  0.25104065  0.75298867  0.92596267     0.14000
N710        N  0.13163675  0.78896147  0.90952935    -0.02300
C711        C  0.17442143  0.79848112  0.89856059     0.00300
C712        C  0.20852756  0.81021433  0.91770634    -0.22600
C713        C  0.18426702  0.79879852  0.94082302    -0.22800
C714        C  0.13569643  0.77746016  0.93457647     0.00200
H715        H  0.24525483  0.81880935  0.91495629     0.14000
H716        H  0.19933035  0.79523167  0.95884997     0.14000
C717        C  0.12543903  0.83145592  0.90796569     0.04300
C718        C  0.16318713  0.87736366  0.91734868    -0.11800
C719        C  0.16577483  0.92064870  0.91089883     0.01800
C720        C  0.12728852  0.91716475  0.89716210    -0.10400
C721        C  0.08551090  0.87418328  0.89169491     0.04300
C722        C  0.08514389  0.82986861  0.89574796    -0.09800
H723        H  0.19271993  0.88007948  0.92823719     0.09900
H724        H  0.12661976  0.94811212  0.89175310     0.07400
H725        H  0.05487229  0.79549230  0.88966362     0.07300
N726        N  0.04593211  0.87912805  0.88173766    -0.02300
C727        C  0.03036200  0.86928445  0.85663014     0.00300
C728        C  0.01251061  0.89924122  0.84952108    -0.22600
C729        C  0.01618201  0.92803961  0.87067411    -0.22800
C730        C  0.03674537  0.91533818  0.88993082     0.00200
H731        H  0.32613178  0.89600774  0.83192952     0.14000
H732        H  0.00377098  0.95422024  0.87216003     0.14000
O733        O  0.24959450  0.94084667  0.97596808    -0.79700
O734        O  0.12134951  0.68357892  0.02065580    -0.64400
O735        O  0.01099321  0.67365279  0.98829532    -1.11000
C736        C  0.04565698  0.93827170  0.91608052     1.07200
O737        O  0.15325596  0.66104365  0.98783646    -0.77600
O738        O  0.12865877  0.71260882  0.95804505    -0.65200
Ni739      Ni  0.28476145  0.64384865  0.00709465     1.34900
C740        C  0.10515486  0.72771606  0.94548448     0.85900
O741        O  0.06206704  0.71742212  0.03261074    -0.78100
O742        O  0.31550298  0.68038880  0.03875158    -0.88400
C743        C  0.15261993  0.67382274  0.01149849     0.85500
O744        O  0.28648839  0.92130407  0.02129001    -0.66600
O745        O  0.08754556  0.96950687  0.92304971    -0.85900
C746        C  0.32330992  0.92395461  0.03206176     0.86300
C747        C  0.02515929  0.70849789  0.04634138     1.07900
H748        H  0.04790000  0.93330524  0.98265301     0.39700
O749        O  0.06085706  0.96602400  0.97655887    -1.08600
O750        O  0.05975701  0.70011841  0.94120242    -0.65200
Ni751      Ni  0.01243689  0.97114256  0.95834059     1.26300
O752        O  0.03181404  0.95657548  0.02625452    -0.65400
O753        O  0.01029230  0.93039893  0.92997517    -0.77700
C754        C  0.25603614  0.96050674  0.95376692     0.85700
O755        O  0.29591054  0.97619112  0.94231050    -0.64900
Ni756      Ni  0.11688275  0.98201303  0.95697064     1.27400
Ni757      Ni  0.06490863  0.67744832  0.00459372     1.26100
H758        H  0.01807679  0.70582636  0.98348837     0.40200
N759        N  0.22167720  0.88115766  0.73001083    -0.02300
C760        C  0.18869298  0.86753048  0.71054069     0.00300
C761        C  0.16141803  0.81722997  0.70909659    -0.22600
C762        C  0.17537049  0.79982993  0.72898581    -0.22800
C763        C  0.21262745  0.83922043  0.74133597     0.00200
H764        H  0.12906999  0.79562299  0.69790480     0.14000
H765        H  0.15622729  0.76300056  0.73575019     0.14000
N766        N  0.05630664  0.97571333  0.75503763    -0.02300
C767        C  0.05844175  0.64080655  0.78161152     0.00300
C768        C  0.05861841  0.93212603  0.78858842    -0.22600
C769        C  0.06360182  0.91063727  0.76635616    -0.22800
C770        C  0.06455222  0.93912069  0.74655428     0.00200
H771        H  0.06704637  0.59122895  0.80760363     0.14000
H772        H  0.07127750  0.88092991  0.76499432     0.14000
N773        N  0.29613280  0.72511254  0.72907474    -0.02300
C774        C  0.25667672  0.72517288  0.73924514     0.00300
C775        C  0.22694468  0.72373286  0.71969195    -0.22600
C776        C  0.91753752  0.72908141  0.69675347    -0.22800
C777        C  0.96071324  0.73260874  0.70300880     0.00200
H778        H  0.19435417  0.72505853  0.72201014     0.14000
H779        H  0.90806513  0.73809722  0.67837917     0.14000
C780        C  0.01529821  0.64353580  0.74411302     0.04300
C781        C  0.01261793  0.68685897  0.74176625    -0.11800
C782        C  0.96808814  0.68357943  0.73553427     0.01800
C783        C  0.26018703  0.63724281  0.73412577    -0.10400
C784        C  0.26302052  0.92829659  0.73461378     0.04300
C785        C  0.97417547  0.93211563  0.73824077    -0.09800
H786        H  0.04417167  0.72202473  0.74476137     0.09900
H787        H  0.22558026  0.63430478  0.73203526     0.07400
H788        H  0.97650010  0.89928361  0.73704047     0.07300
O789        O  0.00595592  0.81269180  0.82139660    -0.79700
O790        O  0.12903060  0.71552588  0.78713030    -0.64400
O791        O  0.24870312  0.79790389  0.81944164    -1.11000
C792        C  0.20464601  0.68731427  0.88370088     1.07200
O793        O  0.08651974  0.68016251  0.82248113    -0.77600
O794        O  0.14290991  0.75129511  0.85926756    -0.65200
Ni795      Ni  0.30414164  0.82823811  0.79738582     1.34900
C796        C  0.17955436  0.77757349  0.87322738     0.85900
O797        O  0.19427135  0.80846626  0.78260198    -0.78100
O798        O  0.27137222  0.84375415  0.77088146    -0.88400
C799        C  0.09161850  0.68312036  0.79780273     0.85500
O800        O  0.29268839  0.77180278  0.77738281    -0.66600
O801        O  0.16648516  0.68904065  0.88028049    -0.85900
C802        C  0.25393925  0.74304824  0.76588630     0.86300
C803        C  0.22806480  0.83317749  0.76705244     1.07900
H804        H  0.18378165  0.68216205  0.81685808     0.39700
O805        O  0.18385307  0.70914074  0.82631520    -1.08600
O806        O  0.21916493  0.77794446  0.86910272    -0.65200
Ni807      Ni  0.24383160  0.74944585  0.84298012     1.26300
O808        O  0.21332482  0.73502965  0.77452378    -0.65400
O809        O  0.23642422  0.70035467  0.86623480    -0.77700
C810        C  0.00536927  0.82032293  0.84572805     0.85700
O811        O  0.30395162  0.79050837  0.85901845    -0.64900
Ni812      Ni  0.13028890  0.68711062  0.84989797     1.27400
Ni813      Ni  0.18872290  0.75792790  0.80336036     1.26100
H814        H  0.24679513  0.82364517  0.82906386     0.40200
N815        N  0.15458077  0.77290386  0.56837697    -0.02300
C816        C  0.16157465  0.81616134  0.57912014     0.00300
C817        C  0.17369253  0.84965751  0.55965632    -0.22600
C818        C  0.16117889  0.82325459  0.53666191    -0.22800
C819        C  0.14134974  0.77478670  0.54325993     0.00200
H820        H  0.18271330  0.88730720  0.56190653     0.14000
H821        H  0.15567415  0.83662681  0.51856565     0.14000
N822        N  0.33355504  0.84286297  0.56314320    -0.02300
C823        C  0.03846334  0.85009207  0.57770702     0.00300
C824        C  0.07912916  0.86887537  0.56297568    -0.22600
C825        C  0.06640807  0.87024287  0.53810335    -0.22800
C826        C  0.01861427  0.85703026  0.53862666     0.00200
H827        H  0.11485466  0.88366193  0.56992674     0.14000
H828        H  0.09153076  0.88854543  0.52251049     0.14000
N829        N  0.23732497  0.67472323  0.58443022    -0.02300
C830        C  0.26823837  0.66052482  0.57401316     0.00300
C831        C  0.27502050  0.96456536  0.59095468    -0.22600
C832        C  0.24971975  0.96175840  0.61279290    -0.22800
C833        C  0.22768286  0.65544549  0.60855843     0.00200
H834        H  0.29708586  0.94775231  0.58800051     0.14000
H835        H  0.24582419  0.94024208  0.62963113     0.14000
C836        C  0.19739041  0.76732778  0.57017211     0.04300
C837        C  0.19407670  0.72216278  0.57637600    -0.11800
C838        C  0.23626128  0.71839446  0.57804020     0.01800
C839        C  0.28028531  0.75955570  0.57491066    -0.10400
C840        C  0.28555790  0.80370756  0.56796191     0.04300
C841        C  0.24426076  0.80761869  0.56513298    -0.09800
H842        H  0.15946556  0.69069176  0.57966760     0.09900
H843        H  0.31181298  0.75630345  0.57687561     0.07400
H844        H  0.24929112  0.84237537  0.55943337     0.07300
O845        O  0.00200872  0.76058609  0.66227893    -0.79700
O846        O  0.14765686  0.95076310  0.61785936    -0.64400
O847        O  0.09658572  0.83650466  0.65632348    -1.11000
C848        C  0.07844687  0.93218522  0.72024835     1.07200
O849        O  0.19812057  0.99088025  0.64993766    -0.77600
O850        O  0.18687240  0.93468947  0.69020925    -0.65200
Ni851      Ni  0.05647082  0.77502520  0.63941216     1.34900
C852        C  0.16545819  0.89491004  0.70203693     0.85900
O853        O  0.14185868  0.86351040  0.60816575    -0.78100
O854        O  0.10885618  0.78398622  0.61625619    -0.88400
C855        C  0.18873380  0.98159762  0.62563778     0.85500
O856        O  0.03288599  0.79670023  0.61100213    -0.66600
O857        O  0.12134273  0.96185200  0.71306461    -0.85900
C858        C  0.04045319  0.83881772  0.60525304     0.86300
C859        C  0.13678913  0.82129410  0.60306766     1.07900
H860        H  0.08317691  0.93155015  0.65837402     0.39700
O861        O  0.10494537  0.92083057  0.66397111    -1.08600
O862        O  0.12106170  0.87426029  0.70597107    -0.65200
Ni863      Ni  0.07124709  0.86240659  0.68232795     1.26300
O864        O  0.06239050  0.87474261  0.62063554    -0.65400
O865        O  0.05023536  0.89292262  0.70768659    -0.77700
C866        C  0.00294858  0.76502127  0.68732680     0.85700
O867        O  0.03642799  0.80159254  0.69903976    -0.64900
Ni868      Ni  0.15823087  0.97370228  0.68095595     1.27400
Ni869      Ni  0.12242046  0.89250522  0.63612528     1.26100
H870        H  0.12338939  0.83449623  0.66304472     0.40200
N871        N  0.22901712  0.88553832  0.40965054    -0.02300
C872        C  0.22368510  0.84235253  0.39980678     0.00300
C873        C  0.21224833  0.80996214  0.41978065    -0.22600
C874        C  0.22269971  0.83724653  0.44242670    -0.22800
C875        C  0.24195037  0.88520998  0.43500783     0.00200
H876        H  0.20554525  0.77299603  0.41830775     0.14000
H877        H  0.22849126  0.82526086  0.46092191     0.14000
N878        N  0.04971253  0.81533418  0.41240496    -0.02300
C879        C  0.01185712  0.80721521  0.39707314     0.00300
C880        C  0.30377507  0.78622041  0.41131935    -0.22600
C881        C  0.31569253  0.78599481  0.43648744    -0.22800
C882        C  0.03048517  0.80099741  0.43681810     0.00200
H883        H  0.26798080  0.76857189  0.40416357     0.14000
H884        H  0.29007925  0.76684756  0.45174821     0.14000
N885        N  0.14702740  0.98452524  0.39359378    -0.02300
C886        C  0.11731027  0.00025971  0.40393849     0.00300
C887        C  0.11433005  0.03284376  0.38767549    -0.22600
C888        C  0.14066934  0.70263791  0.36620775    -0.22800
C889        C  0.15937860  0.00580856  0.37009400     0.00200
H890        H  0.09406793  0.71825814  0.39077106     0.14000
H891        H  0.14682153  0.72563849  0.34972825     0.14000
C892        C  0.18607964  0.89078138  0.40691315     0.04300
C893        C  0.13901909  0.85015827  0.41083015    -0.11800
C894        C  0.09780557  0.85453178  0.40812780     0.01800
C895        C  0.10318955  0.89920492  0.40215385    -0.10400
C896        C  0.14742553  0.94040618  0.39974071     0.04300
C897        C  0.18953210  0.93638458  0.40156356    -0.09800
H898        H  0.13396314  0.81501493  0.41581515     0.09900
H899        H  0.07158999  0.90251016  0.40010594     0.07400
H900        H  0.22428778  0.96812644  0.39906477     0.07300
O901        O  0.99895387  0.87867109  0.49880986    -0.79700
O902        O  0.02463142  0.72638932  0.44501440    -0.64400
O903        O  0.04959518  0.97568406  0.48400275    -1.11000
C904        C  0.29577627  0.67439110  0.54924809     1.07200
O905        O  0.05035665  0.78141452  0.47743916    -0.77600
O906        O  0.06846754  0.76276425  0.52579702    -0.65200
Ni907      Ni  0.03985301  0.91534168  0.47003782     1.34900
C908        C  0.09172256  0.74183216  0.53249077     0.85900
O909        O  0.06944729  0.01144064  0.43430016    -0.78100
O910        O  0.08167784  0.94870191  0.44097130    -0.88400
C911        C  0.03960973  0.76962804  0.45340189     0.85500
O912        O  0.31644779  0.89780459  0.45035289    -0.66600
O913        O  0.30368860  0.71204747  0.53667028    -0.85900
C914        C  0.29195062  0.91813920  0.44502250     0.86300
C915        C  0.08820657  0.98544757  0.42805883     1.07900
H916        H  0.30058936  0.99965175  0.48941781     0.39700
O917        O  0.00103222  0.68459804  0.49327084    -1.08600
O918        O  0.07487450  0.69598281  0.52926241    -0.65200
Ni919      Ni  0.01482024  0.97762267  0.51373528     1.26300
O920        O  0.30790537  0.96355594  0.44900431    -0.65400
O921        O  0.31267798  0.98034827  0.54244720    -0.77700
C922        C  0.00979623  0.88941591  0.52285705     0.85700
O923        O  0.02465047  0.93231009  0.53185183    -0.64900
Ni924      Ni  0.01092196  0.74500642  0.50694001     1.27400
Ni925      Ni  0.03516535  0.68199909  0.46341319     1.26100
H926        H  0.08329056  0.99426073  0.48802187     0.40200
N927        N  0.31026182  0.00817315  0.22121154    -0.02300
C928        C  0.30578936  0.04813208  0.22697175     0.00300
C929        C  0.29770579  0.06610651  0.20466300    -0.22600
C930        C  0.29312389  0.03395710  0.18482275    -0.22800
C931        C  0.29688916  0.99637188  0.19586273     0.00200
H932        H  0.28839237  0.09456288  0.20359574     0.14000
H933        H  0.27812183  0.03265101  0.16582048     0.14000
N934        N  0.14730978  0.75996024  0.24670586    -0.02300
C935        C  0.15471090  0.80512996  0.24167076     0.00300
C936        C  0.16335722  0.83257629  0.26439083    -0.22600
C937        C  0.16489836  0.80466181  0.28383756    -0.22800
C938        C  0.15896043  0.76180890  0.27211125     0.00200
H939        H  0.17424353  0.87084951  0.26611758     0.14000
H940        H  0.17890385  0.81843635  0.30322295     0.14000
N941        N  0.05957440  0.91529698  0.23966177    -0.02300
C942        C  0.06178545  0.89520393  0.26246541     0.00300
C943        C  0.06893010  0.85644240  0.25616978    -0.22600
C944        C  0.06682682  0.85067178  0.22947881    -0.22800
C945        C  0.06362030  0.88878065  0.21944510     0.00200
H946        H  0.06820669  0.83029933  0.26957856     0.14000
H947        H  0.07014778  0.82298875  0.21832009     0.14000
C948        C  0.01889462  0.00639385  0.22948625     0.04300
C949        C  0.06302690  0.71642416  0.23218199    -0.11800
C950        C  0.10557265  0.71600007  0.23754480     0.01800
C951        C  0.10368390  0.00425144  0.23951964    -0.10400
C952        C  0.06018389  0.96070078  0.23729926     0.04300
C953        C  0.01789076  0.96175209  0.23205811    -0.09800
H954        H  0.06404267  0.75085205  0.23074156     0.09900
H955        H  0.13590210  0.00286178  0.24353587     0.07400
H956        H  0.31784951  0.92798256  0.22986205     0.07300
O957        O  0.26626814  0.87145626  0.13742317    -0.79700
O958        O  0.13422991  0.92676347  0.19711564    -0.64400
O959        O  0.17709546  0.85302452  0.15774377    -1.11000
C960        C  0.16611322  0.94740624  0.09128549     1.08400
O961        O  0.06985442  0.89812884  0.17252700    -0.77600
O962        O  0.06473400  0.85446267  0.12437977    -0.65200
Ni963      Ni  0.23035021  0.84724797  0.16934820     1.34900
C964        C  0.07903238  0.82567204  0.11571498     0.85900
O965        O  0.15515818  0.85800802  0.21039454    -0.78100
O966        O  0.19698157  0.81970691  0.20158906    -0.88400
C967        C  0.08986046  0.90926061  0.19515382     0.85500
O968        O  0.26874189  0.91190116  0.18492124    -0.66600
O969        O  0.13057417  0.94615854  0.10400078    -0.85900
C970        C  0.25961562  0.94652430  0.18845238     0.86300
C971        C  0.16907083  0.82814907  0.21607447     1.07900
H972        H  0.18209910  0.95419401  0.14940416     0.39700
O973        O  0.15780421  0.92034849  0.14798162    -1.08600
O974        O  0.12303903  0.83747295  0.11493036    -0.65200
Ni975      Ni  0.18336331  0.88870134  0.12726711     1.26300
O976        O  0.21823227  0.94105352  0.18613106    -0.65400
O977        O  0.18924869  0.92667403  0.09843507    -0.77700
C978        C  0.25298025  0.86588471  0.11359698     0.85700
O979        O  0.21162694  0.85740374  0.10735600    -0.64900
Ni980      Ni  0.10099255  0.92080341  0.13813254     1.27400
Ni981      Ni  0.15627695  0.88932972  0.17886231     1.26100
H982        H  0.15054163  0.82041071  0.15564487     0.40200
O983        O  0.18431613  0.99537869  0.32892223    -0.79700
O984        O  0.31866421  0.85599915  0.27667635    -0.64400
O985        O  0.27261967  0.73757133  0.31105432    -1.11000
C986        C  0.24843463  0.83685045  0.37594480     1.07200
O987        O  0.03833724  0.89200148  0.30821278    -0.77600
O988        O  0.02056072  0.86172609  0.36294679    -0.65200
Ni989      Ni  0.22149466  0.01140673  0.29698127     1.34900
C990        C  0.34391961  0.81902755  0.36923668     0.85900
O991        O  0.31044464  0.76824294  0.26173223    -0.78100
O992        O  0.25534669  0.02206020  0.26394692    -0.88400
C993        C  0.02736536  0.88545133  0.28366588     0.85500
O994        O  0.18259605  0.70535195  0.28625620    -0.66600
O995        O  0.27768137  0.87455936  0.36317156    -0.85900
C996        C  0.19438261  0.74772999  0.27888673     0.86300
C997        C  0.29040010  0.72447334  0.25274335     1.07900
H998        H  0.25065349  0.82285385  0.31822766     0.39700
O999        O  0.27850606  0.82002531  0.32191724    -1.08600
O1000       O  0.32059116  0.78355546  0.35381593    -0.65200
Ni1001     Ni  0.25814207  0.76445905  0.34118584     1.26300
O1002       O  0.23700793  0.78113146  0.27690677    -0.65400
O1003       O  0.24131417  0.79380682  0.37031234    -0.77700
C1004       C  0.19604539  0.67498530  0.35269214     0.85700
O1005       O  0.23787208  0.70632379  0.35884602    -0.64900
Ni1006     Ni  0.32454023  0.88176322  0.33626293     1.27400
Ni1007     Ni  0.29539399  0.79537082  0.29210223     1.26100
H1008       H  0.29913275  0.73220584  0.31440483     0.40200
N1009       N  0.35633845  0.09439362  0.08377403    -0.02300
C1010       C  0.37833854  0.10758551  0.10764589     0.00300
C1011       C  0.39443144  0.07539750  0.11342380    -0.22600
C1012       C  0.38941298  0.04787317  0.09138235    -0.22800
C1013       C  0.36620923  0.06029129  0.07352798     0.00200
H1014       H  0.41685514  0.07867058  0.12980552     0.14000
H1015       H  0.40436635  0.02424143  0.08826840     0.14000
N1016       N  0.61523589  0.19418633  0.06787777    -0.02300
C1017       C  0.65499064  0.22973527  0.05570351     0.00300
C1018       C  0.69047404  0.25716233  0.07402496    -0.22600
C1019       C  0.66932756  0.24710381  0.09777895    -0.22800
C1020       C  0.62278159  0.21174742  0.09317824     0.00200
H1021       H  0.72574169  0.28719519  0.07026705     0.14000
H1022       H  0.68483792  0.26666577  0.11596474     0.14000
N1023       N  0.52015075  0.01017289  0.05556127    -0.02300
C1024       C  0.51876625  0.00183002  0.02913692     0.00300
C1025       C  0.52293322  0.29436990  0.02306903    -0.22600
C1026       C  0.51621219  0.27083463  0.04552333    -0.22800
C1027       C  0.51127235  0.29944339  0.06468842     0.00200
H1028       H  0.51907104  0.27704871  0.00403165     0.14000
H1029       H  0.51116051  0.23458198  0.04740041     0.14000
C1030       C  0.56146447  0.05542598  0.06530110     0.04300
C1031       C  0.56549436  0.10206903  0.06204722    -0.11800
C1032       C  0.61000946  0.14547984  0.06648025     0.01800
C1033       C  0.65040934  0.14107857  0.07290568    -0.10400
C1034       C  0.64724531  0.09664683  0.07695996     0.04300
C1035       C  0.60255634  0.05420203  0.07397949    -0.09800
H1036       H  0.53462315  0.10448225  0.05603079     0.09900
H1037       H  0.68506627  0.17286328  0.07575930     0.07400
H1038       H  0.60057532  0.01964380  0.07720541     0.07300
N1039       N  0.53803039  0.30103032  0.91986929    -0.02300
C1040       C  0.55770306  0.31145136  0.94437791     0.00300
C1041       C  0.57492477  0.02697488  0.95038898    -0.22600
C1042       C  0.57025444  0.04798723  0.92856970    -0.22800
C1043       C  0.54815730  0.01130584  0.91013482     0.00200
H1044       H  0.59658801  0.04698165  0.96718361     0.14000
H1045       H  0.58437383  0.08632191  0.92596271     0.14000
N1046       N  0.46497007  0.12229483  0.90952934    -0.02300
C1047       C  0.50775476  0.13181452  0.89856059     0.00300
C1048       C  0.54186081  0.14354770  0.91770637    -0.22600
C1049       C  0.51760031  0.13213182  0.94082306    -0.22800
C1050       C  0.46902975  0.11079347  0.93457648     0.00200
H1051       H  0.57858807  0.15214273  0.91495633     0.14000
H1052       H  0.53266362  0.12856489  0.95884998     0.14000
C1053       C  0.45877242  0.16478932  0.90796569     0.04300
C1054       C  0.49652055  0.21069707  0.91734864    -0.11800
C1055       C  0.49910821  0.25398208  0.91089880     0.01800
C1056       C  0.46062184  0.25049809  0.89716213    -0.10400
C1057       C  0.41884422  0.20751664  0.89169493     0.04300
C1058       C  0.41847730  0.16320203  0.89574800    -0.09800
H1059       H  0.52605338  0.21341293  0.92823714     0.09900
H1060       H  0.45995308  0.28144543  0.89175315     0.07400
H1061       H  0.38820570  0.12882568  0.88966370     0.07300
N1062       N  0.37926539  0.21246134  0.88173768    -0.02300
C1063       C  0.36369520  0.20261770  0.85663015     0.00300
C1064       C  0.34584386  0.23257447  0.84952105    -0.22600
C1065       C  0.34951538  0.26137283  0.87067406    -0.22800
C1066       C  0.37007870  0.24867150  0.88993081     0.00200
H1067       H  0.65946507  0.22934096  0.83192947     0.14000
H1068       H  0.33710445  0.28755354  0.87215995     0.14000
O1069       O  0.58292781  0.27418009  0.97596811    -0.79700
O1070       O  0.45468280  0.01691227  0.02065579    -0.64400
O1071       O  0.34432650  0.00698608  0.98829533    -1.11000
C1072       C  0.37899027  0.27160510  0.91608049     1.07200
O1073       O  0.48658916  0.99437683  0.98783648    -0.77600
O1074       O  0.46199216  0.04594212  0.95804504    -0.65200
Ni1075     Ni  0.61809479  0.97718187  0.00709464     1.34900
C1076       C  0.43848822  0.06104933  0.94548447     0.85900
O1077       O  0.39540036  0.05075537  0.03261074    -0.78100
O1078       O  0.64883626  0.01372202  0.03875157    -0.88400
C1079       C  0.48595317  0.00715599  0.01149850     0.85500
O1080       O  0.61982185  0.25463756  0.02128999    -0.66600
O1081       O  0.42087884  0.30284022  0.92304971    -0.85900
C1082       C  0.65664333  0.25728805  0.03206176     0.86300
C1083       C  0.35849261  0.04183119  0.04634137     1.07900
H1084       H  0.38123319  0.26663828  0.98265305     0.39700
O1085       O  0.39419035  0.29935729  0.97655886    -1.08600
O1086       O  0.39309038  0.03345167  0.94120243    -0.65200
Ni1087     Ni  0.34577018  0.30447585  0.95834058     1.26300
O1088       O  0.36514743  0.28990885  0.02625453    -0.65400
O1089       O  0.34362558  0.26373234  0.92997513    -0.77700
C1090       C  0.58936949  0.29384002  0.95376689     0.85700
O1091       O  0.62924389  0.30952428  0.94231049    -0.64900
Ni1092     Ni  0.45021601  0.31534634  0.95697064     1.27400
Ni1093     Ni  0.39824187  0.01078155  0.00459372     1.26100
H1094       H  0.35141002  0.03915941  0.98348841     0.40200
N1095       N  0.55501055  0.21449103  0.73001080    -0.02300
C1096       C  0.52202633  0.20086386  0.71054068     0.00300
C1097       C  0.49475137  0.15056338  0.70909663    -0.22600
C1098       C  0.50870371  0.13316331  0.72898587    -0.22800
C1099       C  0.54596071  0.17255381  0.74133599     0.00200
H1100       H  0.46240332  0.12895638  0.69790485     0.14000
H1101       H  0.48956046  0.09633391  0.73575020     0.14000
N1102       N  0.38963993  0.30904655  0.75503764    -0.02300
C1103       C  0.39177513  0.97413997  0.78161152     0.00300
C1104       C  0.39195179  0.26545933  0.78858841    -0.22600
C1105       C  0.39693505  0.24397044  0.76635615    -0.22800
C1106       C  0.39788547  0.27245391  0.74655429     0.00200
H1107       H  0.40037960  0.92456229  0.80760366     0.14000
H1108       H  0.40461072  0.21426307  0.76499432     0.14000
N1109       N  0.62946612  0.05844578  0.72907475    -0.02300
C1110       C  0.59001002  0.05850618  0.73924515     0.00300
C1111       C  0.56027800  0.05706631  0.71969197    -0.22600
C1112       C  0.25087085  0.06241476  0.69675350    -0.22800
C1113       C  0.29404655  0.06594204  0.70300881     0.00200
H1114       H  0.52768758  0.05839213  0.72201017     0.14000
H1115       H  0.24139852  0.07143070  0.67837922     0.14000
C1116       C  0.34863153  0.97686918  0.74411304     0.04300
C1117       C  0.34595122  0.02019232  0.74176626    -0.11800
C1118       C  0.30142141  0.01691271  0.73553427     0.01800
C1119       C  0.59352054  0.97057611  0.73412579    -0.10400
C1120       C  0.59635382  0.26162997  0.73461376     0.04300
C1121       C  0.30750879  0.26544905  0.73824075    -0.09800
H1122       H  0.37750492  0.05535811  0.74476136     0.09900
H1123       H  0.55891377  0.96763806  0.73203529     0.07400
H1124       H  0.30983335  0.23261696  0.73704041     0.07300
O1125       O  0.33928909  0.14602501  0.82139661    -0.79700
O1126       O  0.46236399  0.04885929  0.78713030    -0.64400
O1127       O  0.58203645  0.13123728  0.81944164    -1.11000
C1128       C  0.53797940  0.02064763  0.88370087     1.07200
O1129       O  0.41985312  0.01349590  0.82248112    -0.77600
O1130       O  0.47624324  0.08462850  0.85926758    -0.65200
Ni1131     Ni  0.63747493  0.16157151  0.79738583     1.34900
C1132       C  0.51288771  0.11090692  0.87322738     0.85900
O1133       O  0.52760468  0.14179960  0.78260196    -0.78100
O1134       O  0.60470559  0.17708767  0.77088148    -0.88400
C1135       C  0.42495193  0.01645375  0.79780272     0.85500
O1136       O  0.62602168  0.10513616  0.77738283    -0.66600
O1137       O  0.49981855  0.02237403  0.88028048    -0.85900
C1138       C  0.58727255  0.07638160  0.76588630     0.86300
C1139       C  0.56139812  0.16651091  0.76705244     1.07900
H1140       H  0.51711491  0.01549569  0.81685813     0.39700
O1141       O  0.51718639  0.04247411  0.82631520    -1.08600
O1142       O  0.55249830  0.11127791  0.86910271    -0.65200
Ni1143     Ni  0.57716495  0.08277925  0.84298014     1.26300
O1144       O  0.54665814  0.06836308  0.77452376    -0.65400
O1145       O  0.56975762  0.03368807  0.86623481    -0.77700
C1146       C  0.33870250  0.15365618  0.84572806     0.85700
O1147       O  0.63728500  0.12384162  0.85901848    -0.64900
Ni1148     Ni  0.46362224  0.02044401  0.84989799     1.27400
Ni1149     Ni  0.52205623  0.09126133  0.80336036     1.26100
H1150       H  0.58012851  0.15697856  0.82906388     0.40200
N1151       N  0.48791411  0.10623720  0.56837699    -0.02300
C1152       C  0.49490803  0.14949468  0.57912016     0.00300
C1153       C  0.50702595  0.18299074  0.55965630    -0.22600
C1154       C  0.49451223  0.15658789  0.53666190    -0.22800
C1155       C  0.47468305  0.10812001  0.54325995     0.00200
H1156       H  0.51604670  0.22064044  0.56190648     0.14000
H1157       H  0.48900754  0.16996018  0.51856565     0.14000
N1158       N  0.66688835  0.17619626  0.56314320    -0.02300
C1159       C  0.37179671  0.18342556  0.57770705     0.00300
C1160       C  0.41246260  0.20220892  0.56297576    -0.22600
C1161       C  0.39974129  0.20357618  0.53810346    -0.22800
C1162       C  0.35194753  0.19036356  0.53862670     0.00200
H1163       H  0.44818811  0.21699540  0.56992676     0.14000
H1164       H  0.42486392  0.22187867  0.52251054     0.14000
N1165       N  0.57065819  0.00805652  0.58443021    -0.02300
C1166       C  0.60157155  0.99385811  0.57401313     0.00300
C1167       C  0.60835376  0.29789852  0.59095463    -0.22600
C1168       C  0.58305292  0.29509160  0.61279284    -0.22800
C1169       C  0.56101625  0.98877890  0.60855846     0.00200
H1170       H  0.63041914  0.28108551  0.58800048     0.14000
H1171       H  0.57915734  0.27357539  0.62963112     0.14000
C1172       C  0.53072372  0.10066108  0.57017209     0.04300
C1173       C  0.52741000  0.05549609  0.57637598    -0.11800
C1174       C  0.56959455  0.05172775  0.57804019     0.01800
C1175       C  0.61361855  0.09288894  0.57491068    -0.10400
C1176       C  0.61889119  0.13704083  0.56796191     0.04300
C1177       C  0.57759405  0.14095193  0.56513295    -0.09800
H1178       H  0.49279884  0.02402506  0.57966758     0.09900
H1179       H  0.64514620  0.08963666  0.57687564     0.07400
H1180       H  0.58262441  0.17570858  0.55943334     0.07300
O1181       O  0.33534195  0.09391939  0.66227893    -0.79700
O1182       O  0.48099019  0.28409650  0.61785937    -0.64400
O1183       O  0.42991903  0.16983798  0.65632348    -1.11000
C1184       C  0.41178012  0.26551856  0.72024834     1.07200
O1185       O  0.53145394  0.32421356  0.64993767    -0.77600
O1186       O  0.52020571  0.26802283  0.69020924    -0.65200
Ni1187     Ni  0.38980404  0.10835849  0.63941214     1.34900
C1188       C  0.49879150  0.22824340  0.70203691     0.85900
O1189       O  0.47519194  0.19684373  0.60816574    -0.78100
O1190       O  0.44218938  0.11731950  0.61625615    -0.88400
C1191       C  0.52206714  0.31493101  0.62563778     0.85500
O1192       O  0.36621936  0.13003362  0.61100210    -0.66600
O1193       O  0.45467594  0.29518540  0.71306460    -0.85900
C1194       C  0.37378658  0.17215115  0.60525304     0.86300
C1195       C  0.47012237  0.15462740  0.60306764     1.07900
H1196       H  0.41651049  0.26488355  0.65837400     0.39700
O1197       O  0.43827871  0.25416399  0.66397110    -1.08600
O1198       O  0.45439502  0.20759372  0.70597109    -0.65200
Ni1199     Ni  0.40458041  0.19573995  0.68232795     1.26300
O1200       O  0.39572393  0.20807602  0.62063554    -0.65400
O1201       O  0.38356859  0.22625599  0.70768655    -0.77700
C1202       C  0.33628187  0.09835454  0.68732681     0.85700
O1203       O  0.36976132  0.13492585  0.69903975    -0.64900
Ni1204     Ni  0.49156421  0.30703567  0.68095596     1.27400
Ni1205     Ni  0.45575384  0.22583859  0.63612528     1.26100
H1206       H  0.45672268  0.16782951  0.66304473     0.40200
N1207       N  0.56235044  0.21887174  0.40965054    -0.02300
C1208       C  0.55701847  0.17568595  0.39980679     0.00300
C1209       C  0.54558160  0.14329549  0.41978064    -0.22600
C1210       C  0.55603290  0.17057991  0.44242670    -0.22800
C1211       C  0.57528366  0.21854339  0.43500784     0.00200
H1212       H  0.53887862  0.10632942  0.41830773     0.14000
H1213       H  0.56182450  0.15859424  0.46092189     0.14000
N1214       N  0.38304589  0.14866752  0.41240497    -0.02300
C1215       C  0.34519047  0.14054846  0.39707315     0.00300
C1216       C  0.63710851  0.11955362  0.41131935    -0.22600
C1217       C  0.64902597  0.11932808  0.43648743    -0.22800
C1218       C  0.36381863  0.13433075  0.43681810     0.00200
H1219       H  0.60131423  0.10190523  0.40416357     0.14000
H1220       H  0.62341271  0.10018090  0.45174823     0.14000
N1221       N  0.48036073  0.31785861  0.39359378    -0.02300
C1222       C  0.45064364  0.33359316  0.40393848     0.00300
C1223       C  0.44766355  0.36617732  0.38767550    -0.22600
C1224       C  0.47400264  0.03597117  0.36620775    -0.22800
C1225       C  0.49271201  0.33914197  0.37009402     0.00200
H1226       H  0.42740105  0.05159116  0.39077097     0.14000
H1227       H  0.48015474  0.05897171  0.34972824     0.14000
C1228       C  0.51941289  0.22411470  0.40691314     0.04300
C1229       C  0.47235238  0.18349163  0.41083012    -0.11800
C1230       C  0.43113891  0.18786513  0.40812780     0.01800
C1231       C  0.43652296  0.23253825  0.40215387    -0.10400
C1232       C  0.48075885  0.27373952  0.39974072     0.04300
C1233       C  0.52286528  0.26971784  0.40156357    -0.09800
H1234       H  0.46729639  0.14834829  0.41581512     0.09900
H1235       H  0.40492341  0.23584348  0.40010596     0.07400
H1236       H  0.55762095  0.30145966  0.39906479     0.07300
O1237       O  0.33228727  0.21200437  0.49880983    -0.79700
O1238       O  0.35796483  0.05972263  0.44501441    -0.64400
O1239       O  0.38292849  0.30901742  0.48400275    -1.11000
C1240       C  0.62910943  0.00772434  0.54924804     1.07200
O1241       O  0.38369012  0.11474786  0.47743917    -0.77600
O1242       O  0.40180088  0.09609748  0.52579703    -0.65200
Ni1243     Ni  0.37318640  0.24867507  0.47003781     1.34900
C1244       C  0.42505591  0.07516542  0.53249080     0.85900
O1245       O  0.40278062  0.34477407  0.43430015    -0.78100
O1246       O  0.41501118  0.28203534  0.44097128    -0.88400
C1247       C  0.37294317  0.10296137  0.45340189     0.85500
O1248       O  0.64978109  0.23113790  0.45035292    -0.66600
O1249       O  0.63702179  0.04538074  0.53667023    -0.85900
C1250       C  0.62528394  0.25147254  0.44502250     0.86300
C1251       C  0.42153991  0.31878100  0.42805881     1.07900
H1252       H  0.63392269  0.33298505  0.48941781     0.39700
O1253       O  0.33436560  0.01793139  0.49327085    -1.08600
O1254       O  0.40820787  0.02931608  0.52926241    -0.65200
Ni1255     Ni  0.34815353  0.31095597  0.51373527     1.26300
O1256       O  0.64123875  0.29688930  0.44900428    -0.65400
O1257       O  0.64601112  0.31368149  0.54244715    -0.77700
C1258       C  0.34312956  0.22274920  0.52285703     0.85700
O1259       O  0.35798379  0.26564337  0.53185181    -0.64900
Ni1260     Ni  0.34425535  0.07833976  0.50694001     1.27400
Ni1261     Ni  0.36849866  0.01533235  0.46341319     1.26100
H1262       H  0.41662403  0.32759427  0.48802190     0.40200
N1263       N  0.64359516  0.34150647  0.22121155    -0.02300
C1264       C  0.63912277  0.38146546  0.22697174     0.00300
C1265       C  0.63103920  0.39943993  0.20466296    -0.22600
C1266       C  0.62645727  0.36729044  0.18482272    -0.22800
C1267       C  0.63022247  0.32970519  0.19586273     0.00200
H1268       H  0.62172567  0.42789622  0.20359571     0.14000
H1269       H  0.61145515  0.36598424  0.16582047     0.14000
N1270       N  0.48064312  0.09329354  0.24670586    -0.02300
C1271       C  0.48804417  0.13846326  0.24167075     0.00300
C1272       C  0.49669039  0.16590964  0.26439081    -0.22600
C1273       C  0.49823159  0.13799512  0.28383754    -0.22800
C1274       C  0.49229376  0.09514223  0.27211124     0.00200
H1275       H  0.50757673  0.20418286  0.26611756     0.14000
H1276       H  0.51223718  0.15176971  0.30322290     0.14000
N1277       N  0.39290772  0.24863029  0.23966178    -0.02300
C1278       C  0.39511872  0.22853724  0.26246543     0.00300
C1279       C  0.40226348  0.18977576  0.25616983    -0.22600
C1280       C  0.40016033  0.18400527  0.22947886    -0.22800
C1281       C  0.39695375  0.22211407  0.21944511     0.00200
H1282       H  0.40153999  0.16363261  0.26957857     0.14000
H1283       H  0.40348124  0.15632222  0.21832011     0.14000
C1284       C  0.35222804  0.33972724  0.22948624     0.04300
C1285       C  0.39636018  0.04975740  0.23218214    -0.11800
C1286       C  0.43890591  0.04933337  0.23754484     0.01800
C1287       C  0.43701729  0.33758473  0.23951964    -0.10400
C1288       C  0.39351729  0.29403412  0.23729926     0.04300
C1289       C  0.35122423  0.29508547  0.23205811    -0.09800
H1290       H  0.39737596  0.08418532  0.23074175     0.09900
H1291       H  0.46923547  0.33619498  0.24353587     0.07400
H1292       H  0.65118293  0.26131583  0.22986207     0.07300
O1293       O  0.59960153  0.20478975  0.13742318    -0.79700
O1294       O  0.46756334  0.26009685  0.19711565    -0.64400
O1295       O  0.51042874  0.18635783  0.15774376    -1.11000
C1296       C  0.49944666  0.28073967  0.09128550     1.08400
O1297       O  0.40318790  0.23146230  0.17252701    -0.77600
O1298       O  0.39806743  0.18779616  0.12437977    -0.65200
Ni1299     Ni  0.56368355  0.18058133  0.16934819     1.34900
C1300       C  0.41236574  0.15900545  0.11571497     0.85900
O1301       O  0.48849149  0.19134130  0.21039453    -0.78100
O1302       O  0.53031485  0.15304016  0.20158904    -0.88400
C1303       C  0.42319393  0.24259404  0.19515383     0.85500
O1304       O  0.60207517  0.24523449  0.18492127    -0.66600
O1305       O  0.46390765  0.27949200  0.10400080    -0.85900
C1306       C  0.59294891  0.27985761  0.18845240     0.86300
C1307       C  0.50240413  0.16148234  0.21607446     1.07900
H1308       H  0.51543260  0.28752743  0.14940417     0.39700
O1309       O  0.49113759  0.25368184  0.14798163    -1.08600
O1310       O  0.45637235  0.17080631  0.11493033    -0.65200
Ni1311     Ni  0.51669665  0.22203470  0.12726711     1.26300
O1312       O  0.55156556  0.27438683  0.18613107    -0.65400
O1313       O  0.52258211  0.26000742  0.09843507    -0.77700
C1314       C  0.58631361  0.19921814  0.11359699     0.85700
O1315       O  0.54496028  0.19073714  0.10735602    -0.64900
Ni1316     Ni  0.43432603  0.25413690  0.13813255     1.27400
Ni1317     Ni  0.48961027  0.22266304  0.17886231     1.26100
H1318       H  0.48387492  0.15374404  0.15564487     0.40200
O1319       O  0.51764936  0.32871212  0.32892221    -0.79700
O1320       O  0.65199754  0.18933261  0.27667642    -0.64400
O1321       O  0.60595301  0.07090476  0.31105432    -1.11000
C1322       C  0.58176799  0.17018381  0.37594481     1.07200
O1323       O  0.37167050  0.22533486  0.30821280    -0.77600
O1324       O  0.35389396  0.19505941  0.36294685    -0.65200
Ni1325     Ni  0.55482791  0.34474004  0.29698126     1.34900
C1326       C  0.67725301  0.15236086  0.36923668     0.85900
O1327       O  0.64377788  0.10157629  0.26173219    -0.78100
O1328       O  0.58868005  0.35539351  0.26394692    -0.88400
C1329       C  0.36069864  0.21878470  0.28366589     0.85500
O1330       O  0.51592942  0.03868530  0.28625616    -0.66600
O1331       O  0.61101482  0.20789268  0.36317157    -0.85900
C1332       C  0.52771594  0.08106335  0.27888674     0.86300
C1333       C  0.62373343  0.05780664  0.25274336     1.07900
H1334       H  0.58398690  0.15618729  0.31822768     0.39700
O1335       O  0.61183944  0.15335869  0.32191725    -1.08600
O1336       O  0.65392450  0.11688882  0.35381591    -0.65200
Ni1337     Ni  0.59147539  0.09779246  0.34118583     1.26300
O1338       O  0.57034126  0.11446489  0.27690681    -0.65400
O1339       O  0.57464741  0.12714015  0.37031234    -0.77700
C1340       C  0.52937875  0.00831870  0.35269215     0.85700
O1341       O  0.57120543  0.03965726  0.35884601    -0.64900
Ni1342     Ni  0.65787368  0.21509654  0.33626295     1.27400
Ni1343     Ni  0.62872731  0.12870422  0.29210223     1.26100
H1344       H  0.63246610  0.06553935  0.31440485     0.40200
N1345       N  0.35633857  0.42772701  0.08377402    -0.02300
C1346       C  0.37833863  0.44091883  0.10764587     0.00300
C1347       C  0.39443143  0.40873076  0.11342375    -0.22600
C1348       C  0.38941300  0.38120644  0.09138232    -0.22800
C1349       C  0.36620930  0.39362465  0.07352795     0.00200
H1350       H  0.41685506  0.41200373  0.12980548     0.14000
H1351       H  0.40436639  0.35757471  0.08826839     0.14000
N1352       N  0.61523594  0.52751960  0.06787778    -0.02300
C1353       C  0.65499065  0.56306854  0.05570349     0.00300
C1354       C  0.69047408  0.59049559  0.07402495    -0.22600
C1355       C  0.66932761  0.58043711  0.09777896    -0.22800
C1356       C  0.62278164  0.54508070  0.09317825     0.00200
H1357       H  0.72574170  0.62052852  0.07026703     0.14000
H1358       H  0.68483794  0.59999914  0.11596473     0.14000
N1359       N  0.52015085  0.34350627  0.05556125    -0.02300
C1360       C  0.51876633  0.33516334  0.02913690     0.00300
C1361       C  0.52293324  0.62770340  0.02306901    -0.22600
C1362       C  0.51621229  0.60416822  0.04552331    -0.22800
C1363       C  0.51127236  0.63277681  0.06468842     0.00200
H1364       H  0.51907112  0.61038221  0.00403164     0.14000
H1365       H  0.51116071  0.56791558  0.04740034     0.14000
C1366       C  0.56146458  0.38875932  0.06530109     0.04300
C1367       C  0.56549447  0.43540237  0.06204721    -0.11800
C1368       C  0.61000947  0.47881310  0.06648027     0.01800
C1369       C  0.65040922  0.47441171  0.07290577    -0.10400
C1370       C  0.64724536  0.42998010  0.07695998     0.04300
C1371       C  0.60255646  0.38753537  0.07397948    -0.09800
H1372       H  0.53462329  0.43781561  0.05603076     0.09900
H1373       H  0.68506614  0.50619644  0.07575946     0.07400
H1374       H  0.60057546  0.35297718  0.07720540     0.07300
N1375       N  0.53803036  0.63436362  0.91986932    -0.02300
C1376       C  0.55770294  0.64478460  0.94437796     0.00300
C1377       C  0.57492490  0.36030833  0.95038897    -0.22600
C1378       C  0.57025454  0.38132074  0.92856968    -0.22800
C1379       C  0.54815723  0.34463923  0.91013483     0.00200
H1380       H  0.59658809  0.38031498  0.96718363     0.14000
H1381       H  0.58437393  0.41965539  0.92596268     0.14000
N1382       N  0.46497011  0.45562821  0.90952936    -0.02300
C1383       C  0.50775478  0.46514786  0.89856059     0.00300
C1384       C  0.54186088  0.47688105  0.91770635    -0.22600
C1385       C  0.51760039  0.46546522  0.94082307    -0.22800
C1386       C  0.46902979  0.44412686  0.93457650     0.00200
H1387       H  0.57858812  0.48547599  0.91495628     0.14000
H1388       H  0.53266372  0.46189827  0.95884998     0.14000
C1389       C  0.45877236  0.49812262  0.90796567     0.04300
C1390       C  0.49652047  0.54403040  0.91734861    -0.11800
C1391       C  0.49910823  0.58731542  0.91089877     0.01800
C1392       C  0.46062194  0.58383148  0.89716211    -0.10400
C1393       C  0.41884427  0.54084998  0.89169490     0.04300
C1394       C  0.41847720  0.49653525  0.89574795    -0.09800
H1395       H  0.52605330  0.54674623  0.92823712     0.09900
H1396       H  0.45995317  0.61477887  0.89175321     0.07400
H1397       H  0.38820560  0.46215895  0.88966365     0.07300
N1398       N  0.37926553  0.54579479  0.88173765    -0.02300
C1399       C  0.36369540  0.53595117  0.85663012     0.00300
C1400       C  0.34584405  0.56590796  0.84952104    -0.22600
C1401       C  0.34951548  0.59470626  0.87067409    -0.22800
C1402       C  0.37007880  0.58200490  0.88993082     0.00200
H1403       H  0.65946512  0.56267442  0.83192954     0.14000
H1404       H  0.33710443  0.62088688  0.87216002     0.14000
O1405       O  0.58292781  0.60751335  0.97596810    -0.79700
O1406       O  0.45468283  0.35024554  0.02065579    -0.64400
O1407       O  0.34432652  0.34031939  0.98829531    -1.11000
C1408       C  0.37899034  0.60493844  0.91608052     1.07200
O1409       O  0.48658921  0.32771018  0.98783645    -0.77600
O1410       O  0.46199209  0.37927546  0.95804506    -0.65200
Ni1411     Ni  0.61809485  0.31051536  0.00709465     1.34900
C1412       C  0.43848820  0.39438272  0.94548449     0.85900
O1413       O  0.39540041  0.38408884  0.03261067    -0.78100
O1414       O  0.64883636  0.34705554  0.03875155    -0.88400
C1415       C  0.48595322  0.34048930  0.01149848     0.85500
O1416       O  0.61982176  0.58797080  0.02128998    -0.66600
O1417       O  0.42087889  0.63617363  0.92304972    -0.85900
C1418       C  0.65664326  0.59062133  0.03206177     0.86300
C1419       C  0.35849268  0.37516465  0.04634134     1.07900
H1420       H  0.38123332  0.59997201  0.98265302     0.39700
O1421       O  0.39419039  0.63269077  0.97655887    -1.08600
O1422       O  0.39309034  0.36678504  0.94120244    -0.65200
Ni1423     Ni  0.34577021  0.63780928  0.95834059     1.26300
O1424       O  0.36514733  0.62324221  0.02625451    -0.65400
O1425       O  0.34362565  0.59706565  0.92997517    -0.77700
C1426       C  0.58936943  0.62717330  0.95376689     0.85700
O1427       O  0.62924385  0.64285762  0.94231047    -0.64900
Ni1428     Ni  0.45021607  0.64867975  0.95697064     1.27400
Ni1429     Ni  0.39824191  0.34411486  0.00459371     1.26100
H1430       H  0.35141004  0.37249270  0.98348836     0.40200
N1431       N  0.55501054  0.54782438  0.73001083    -0.02300
C1432       C  0.52202633  0.53419720  0.71054068     0.00300
C1433       C  0.49475139  0.48389670  0.70909659    -0.22600
C1434       C  0.50870383  0.46649666  0.72898582    -0.22800
C1435       C  0.54596078  0.50588715  0.74133598     0.00200
H1436       H  0.46240335  0.46228971  0.69790482     0.14000
H1437       H  0.48956061  0.42966726  0.73575017     0.14000
N1438       N  0.38963992  0.64237993  0.75503763    -0.02300
C1439       C  0.39177514  0.30747327  0.78161152     0.00300
C1440       C  0.39195159  0.59879261  0.78858841    -0.22600
C1441       C  0.39693497  0.57730388  0.76635615    -0.22800
C1442       C  0.39788548  0.60578729  0.74655429     0.00200
H1443       H  0.40037971  0.25789567  0.80760365     0.14000
H1444       H  0.40461065  0.54759652  0.76499434     0.14000
N1445       N  0.62946612  0.39177914  0.72907477    -0.02300
C1446       C  0.59000997  0.39183947  0.73924514     0.00300
C1447       C  0.56027794  0.39039956  0.71969193    -0.22600
C1448       C  0.25087082  0.39574804  0.69675348    -0.22800
C1449       C  0.29404657  0.39927538  0.70300882     0.00200
H1450       H  0.52768747  0.39172531  0.72201009     0.14000
H1451       H  0.24139857  0.40476396  0.67837917     0.14000
C1452       C  0.34863153  0.31020249  0.74411304     0.04300
C1453       C  0.34595121  0.35352557  0.74176626    -0.11800
C1454       C  0.30142140  0.35024601  0.73553427     0.01800
C1455       C  0.59352042  0.30390945  0.73412578    -0.10400
C1456       C  0.59635381  0.59496330  0.73461378     0.04300
C1457       C  0.30750877  0.59878227  0.73824075    -0.09800
H1458       H  0.37750493  0.38869134  0.74476136     0.09900
H1459       H  0.55891366  0.30097141  0.73203526     0.07400
H1460       H  0.30983334  0.56595018  0.73704044     0.07300
O1461       O  0.33928920  0.47935837  0.82139661    -0.79700
O1462       O  0.46236391  0.38219268  0.78713031    -0.64400
O1463       O  0.58203647  0.46457058  0.81944165    -1.11000
C1464       C  0.53797927  0.35398093  0.88370089     1.07200
O1465       O  0.41985303  0.34682922  0.82248112    -0.77600
O1466       O  0.47624320  0.41796175  0.85926758    -0.65200
Ni1467     Ni  0.63747497  0.49490476  0.79738581     1.34900
C1468       C  0.51288768  0.44424019  0.87322738     0.85900
O1469       O  0.52760474  0.47513302  0.78260199    -0.78100
O1470       O  0.60470560  0.51042088  0.77088146    -0.88400
C1471       C  0.42495183  0.34978710  0.79780272     0.85500
O1472       O  0.62602165  0.43846937  0.77738282    -0.66600
O1473       O  0.49981840  0.35570728  0.88028049    -0.85900
C1474       C  0.58727250  0.40971486  0.76588629     0.86300
C1475       C  0.56139816  0.49984423  0.76705244     1.07900
H1476       H  0.51711495  0.34882877  0.81685807     0.39700
O1477       O  0.51718637  0.37580744  0.82631521    -1.08600
O1478       O  0.55249826  0.44461120  0.86910271    -0.65200
Ni1479     Ni  0.57716493  0.41611252  0.84298013     1.26300
O1480       O  0.54665809  0.40169636  0.77452376    -0.65400
O1481       O  0.56975749  0.36702135  0.86623483    -0.77700
C1482       C  0.33870261  0.48698960  0.84572805     0.85700
O1483       O  0.63728503  0.45717506  0.85901847    -0.64900
Ni1484     Ni  0.46362217  0.35377726  0.84989796     1.27400
Ni1485     Ni  0.52205623  0.42459462  0.80336036     1.26100
H1486       H  0.58012854  0.49031171  0.82906383     0.40200
N1487       N  0.48791409  0.43957049  0.56837696    -0.02300
C1488       C  0.49490794  0.48282794  0.57912014     0.00300
C1489       C  0.50702585  0.51632407  0.55965632    -0.22600
C1490       C  0.49451231  0.48992127  0.53666189    -0.22800
C1491       C  0.47468307  0.44145336  0.54325992     0.00200
H1492       H  0.51604657  0.55397375  0.56190651     0.14000
H1493       H  0.48900774  0.50329360  0.51856563     0.14000
N1494       N  0.66688837  0.50952961  0.56314322    -0.02300
C1495       C  0.37179670  0.51675877  0.57770704     0.00300
C1496       C  0.41246252  0.53554211  0.56297574    -0.22600
C1497       C  0.39974132  0.53690947  0.53810344    -0.22800
C1498       C  0.35194758  0.52369691  0.53862670     0.00200
H1499       H  0.44818805  0.55032870  0.56992677     0.14000
H1500       H  0.42486401  0.55521198  0.52251055     0.14000
N1501       N  0.57065822  0.34138986  0.58443021    -0.02300
C1502       C  0.60157165  0.32719145  0.57401316     0.00300
C1503       C  0.60835372  0.63123185  0.59095462    -0.22600
C1504       C  0.58305293  0.62842489  0.61279282    -0.22800
C1505       C  0.56101618  0.32211221  0.60855844     0.00200
H1506       H  0.63041907  0.61441877  0.58800047     0.14000
H1507       H  0.57915736  0.60690859  0.62963106     0.14000
C1508       C  0.53072372  0.43399438  0.57017210     0.04300
C1509       C  0.52741007  0.38882945  0.57637597    -0.11800
C1510       C  0.56959464  0.38506111  0.57804018     0.01800
C1511       C  0.61361871  0.42622227  0.57491068    -0.10400
C1512       C  0.61889127  0.47037414  0.56796193     0.04300
C1513       C  0.57759405  0.47428519  0.56513299    -0.09800
H1514       H  0.49279893  0.35735836  0.57966758     0.09900
H1515       H  0.64514633  0.42296996  0.57687566     0.07400
H1516       H  0.58262441  0.50904186  0.55943341     0.07300
O1517       O  0.33534198  0.42725264  0.66227893    -0.79700
O1518       O  0.48099020  0.61742973  0.61785934    -0.64400
O1519       O  0.42991908  0.50317130  0.65632349    -1.11000
C1520       C  0.41178015  0.59885185  0.72024835     1.07200
O1521       O  0.53145390  0.65754685  0.64993765    -0.77600
O1522       O  0.52020565  0.60135612  0.69020922    -0.65200
Ni1523     Ni  0.38980411  0.44169177  0.63941216     1.34900
C1524       C  0.49879149  0.56157672  0.70203694     0.85900
O1525       O  0.47519196  0.53017698  0.60816577    -0.78100
O1526       O  0.44218943  0.45065276  0.61625618    -0.88400
C1527       C  0.52206714  0.64826426  0.62563777     0.85500
O1528       O  0.36621945  0.46336689  0.61100210    -0.66600
O1529       O  0.45467598  0.62851867  0.71306461    -0.85900
C1530       C  0.37378660  0.50548439  0.60525304     0.86300
C1531       C  0.47012238  0.48796066  0.60306766     1.07900
H1532       H  0.41651030  0.59821686  0.65837399     0.39700
O1533       O  0.43827872  0.58749725  0.66397110    -1.08600
O1534       O  0.45439500  0.54092698  0.70597110    -0.65200
Ni1535     Ni  0.40458042  0.52907326  0.68232794     1.26300
O1536       O  0.39572389  0.54140925  0.62063556    -0.65400
O1537       O  0.38356863  0.55958927  0.70768657    -0.77700
C1538       C  0.33628187  0.43168787  0.68732680     0.85700
O1539       O  0.36976128  0.46825918  0.69903974    -0.64900
Ni1540     Ni  0.49156418  0.64036896  0.68095595     1.27400
Ni1541     Ni  0.45575382  0.55917186  0.63612528     1.26100
H1542       H  0.45672279  0.50116289  0.66304472     0.40200
N1543       N  0.56235049  0.55220505  0.40965054    -0.02300
C1544       C  0.55701845  0.50901923  0.39980677     0.00300
C1545       C  0.54558162  0.47662876  0.41978063    -0.22600
C1546       C  0.55603298  0.50391320  0.44242667    -0.22800
C1547       C  0.57528371  0.55187669  0.43500783     0.00200
H1548       H  0.53887858  0.43966267  0.41830773     0.14000
H1549       H  0.56182452  0.49192750  0.46092187     0.14000
N1550       N  0.38304593  0.48200086  0.41240495    -0.02300
C1551       C  0.34519051  0.47388193  0.39707314     0.00300
C1552       C  0.63710852  0.45288697  0.41131936    -0.22600
C1553       C  0.64902594  0.45266134  0.43648743    -0.22800
C1554       C  0.36381855  0.46766409  0.43681810     0.00200
H1555       H  0.60131424  0.43523854  0.40416359     0.14000
H1556       H  0.62341266  0.43351409  0.45174822     0.14000
N1557       N  0.48036067  0.65119189  0.39359374    -0.02300
C1558       C  0.45064355  0.66692640  0.40393844     0.00300
C1559       C  0.44766345  0.69951053  0.38767547    -0.22600
C1560       C  0.47400285  0.36930468  0.36620780    -0.22800
C1561       C  0.49271183  0.67247516  0.37009395     0.00200
H1562       H  0.42740128  0.38492471  0.39077096     0.14000
H1563       H  0.48015501  0.39230524  0.34972829     0.14000
C1564       C  0.51941298  0.55744806  0.40691316     0.04300
C1565       C  0.47235247  0.51682494  0.41083015    -0.11800
C1566       C  0.43113899  0.52119844  0.40812779     0.01800
C1567       C  0.43652304  0.56587158  0.40215386    -0.10400
C1568       C  0.48075891  0.60707287  0.39974071     0.04300
C1569       C  0.52286538  0.60305123  0.40156356    -0.09800
H1570       H  0.46729653  0.48168162  0.41581517     0.09900
H1571       H  0.40492349  0.56917681  0.40010596     0.07400
H1572       H  0.55762105  0.63479308  0.39906476     0.07300
O1573       O  0.33228734  0.54533769  0.49880984    -0.79700
O1574       O  0.35796468  0.39305594  0.44501441    -0.64400
O1575       O  0.38292854  0.64235076  0.48400274    -1.11000
C1576       C  0.62910949  0.34105767  0.54924807     1.07200
O1577       O  0.38368992  0.44808117  0.47743916    -0.77600
O1578       O  0.40180085  0.42943094  0.52579702    -0.65200
Ni1579     Ni  0.37318642  0.58200839  0.47003781     1.34900
C1580       C  0.42505585  0.40849885  0.53249077     0.85900
O1581       O  0.40278067  0.67810743  0.43430014    -0.78100
O1582       O  0.41501116  0.61536866  0.44097125    -0.88400
C1583       C  0.37294304  0.43629469  0.45340188     0.85500
O1584       O  0.64978114  0.56447130  0.45035291    -0.66600
O1585       O  0.63702191  0.37871409  0.53667028    -0.85900
C1586       C  0.62528396  0.58480591  0.44502250     0.86300
C1587       C  0.42153988  0.65211431  0.42805879     1.07900
H1588       H  0.63392270  0.66631838  0.48941781     0.39700
O1589       O  0.33436547  0.35126467  0.49327085    -1.08600
O1590       O  0.40820773  0.36264946  0.52926242    -0.65200
Ni1591     Ni  0.34815361  0.64428935  0.51373527     1.26300
O1592       O  0.64123875  0.63022266  0.44900429    -0.65400
O1593       O  0.64601124  0.64701486  0.54244716    -0.77700
C1594       C  0.34312956  0.55608251  0.52285704     0.85700
O1595       O  0.35798372  0.59897670  0.53185182    -0.64900
Ni1596     Ni  0.34425522  0.41167306  0.50694002     1.27400
Ni1597     Ni  0.36849861  0.34866571  0.46341320     1.26100
H1598       H  0.41662408  0.66092758  0.48802190     0.40200
N1599       N  0.64359517  0.67483980  0.22121154    -0.02300
C1600       C  0.63912287  0.71479884  0.22697174     0.00300
C1601       C  0.63103941  0.73277326  0.20466295    -0.22600
C1602       C  0.62645736  0.70062378  0.18482271    -0.22800
C1603       C  0.63022250  0.66303853  0.19586273     0.00200
H1604       H  0.62172590  0.76122958  0.20359568     0.14000
H1605       H  0.61145517  0.69931761  0.16582047     0.14000
N1606       N  0.48064312  0.42662691  0.24670587    -0.02300
C1607       C  0.48804420  0.47179663  0.24167076     0.00300
C1608       C  0.49669049  0.49924295  0.26439082    -0.22600
C1609       C  0.49823171  0.47132855  0.28383757    -0.22800
C1610       C  0.49229375  0.42847562  0.27211126     0.00200
H1611       H  0.50757684  0.53751618  0.26611755     0.14000
H1612       H  0.51223728  0.48510318  0.30322293     0.14000
N1613       N  0.39290774  0.58196365  0.23966177    -0.02300
C1614       C  0.39511875  0.56187056  0.26246542     0.00300
C1615       C  0.40226340  0.52310899  0.25616984    -0.22600
C1616       C  0.40016027  0.51733856  0.22947887    -0.22800
C1617       C  0.39695375  0.55544739  0.21944511     0.00200
H1618       H  0.40153989  0.49696584  0.26957859     0.14000
H1619       H  0.40348125  0.48965556  0.21832012     0.14000
C1620       C  0.35222805  0.67306064  0.22948616     0.04300
C1621       C  0.39636023  0.38309083  0.23218212    -0.11800
C1622       C  0.43890596  0.38266675  0.23754483     0.01800
C1623       C  0.43701722  0.67091814  0.23951965    -0.10400
C1624       C  0.39351727  0.62736749  0.23729925     0.04300
C1625       C  0.35122422  0.62841888  0.23205809    -0.09800
H1626       H  0.39737600  0.41751873  0.23074175     0.09900
H1627       H  0.46923542  0.66952851  0.24353591     0.07400
H1628       H  0.65118293  0.59464926  0.22986210     0.07300
O1629       O  0.59960151  0.53812296  0.13742317    -0.79700
O1630       O  0.46756335  0.59343018  0.19711566    -0.64400
O1631       O  0.51042878  0.51969125  0.15774377    -1.11000
C1632       C  0.49944664  0.61407300  0.09128549     1.08400
O1633       O  0.40318788  0.56479553  0.17252701    -0.77600
O1634       O  0.39806739  0.52112939  0.12437976    -0.65200
Ni1635     Ni  0.56368354  0.51391468  0.16934820     1.34900
C1636       C  0.41236577  0.49233874  0.11571499     0.85900
O1637       O  0.48849153  0.52467472  0.21039454    -0.78100
O1638       O  0.53031493  0.48637364  0.20158906    -0.88400
C1639       C  0.42319392  0.57592730  0.19515383     0.85500
O1640       O  0.60207523  0.57856786  0.18492123    -0.66600
O1641       O  0.46390758  0.61282526  0.10400077    -0.85900
C1642       C  0.59294895  0.61319098  0.18845239     0.86300
C1643       C  0.50240418  0.49481579  0.21607447     1.07900
H1644       H  0.51543242  0.62086076  0.14940415     0.39700
O1645       O  0.49113757  0.58701524  0.14798162    -1.08600
O1646       O  0.45637240  0.50413966  0.11493035    -0.65200
Ni1647     Ni  0.51669668  0.55536810  0.12726712     1.26300
O1648       O  0.55156560  0.60772021  0.18613108    -0.65400
O1649       O  0.52258215  0.59334083  0.09843508    -0.77700
C1650       C  0.58631360  0.53255141  0.11359699     0.85700
O1651       O  0.54496031  0.52407051  0.10735602    -0.64900
Ni1652     Ni  0.43432594  0.58747014  0.13813254     1.27400
Ni1653     Ni  0.48961031  0.55599644  0.17886231     1.26100
H1654       H  0.48387494  0.48707745  0.15564486     0.40200
O1655       O  0.51764938  0.66204532  0.32892218    -0.79700
O1656       O  0.65199758  0.52266596  0.27667643    -0.64400
O1657       O  0.60595296  0.40423805  0.31105431    -1.11000
C1658       C  0.58176799  0.50351712  0.37594480     1.07200
O1659       O  0.37167055  0.55866814  0.30821278    -0.77600
O1660       O  0.35389404  0.52839279  0.36294682    -0.65200
Ni1661     Ni  0.55482794  0.67807336  0.29698123     1.34900
C1662       C  0.67725297  0.48569423  0.36923669     0.85900
O1663       O  0.64377787  0.43490963  0.26173221    -0.78100
O1664       O  0.58868007  0.68872694  0.26394689    -0.88400
C1665       C  0.36069867  0.55211803  0.28366588     0.85500
O1666       O  0.51592934  0.37201859  0.28625615    -0.66600
O1667       O  0.61101479  0.54122601  0.36317155    -0.85900
C1668       C  0.52771589  0.41439666  0.27888674     0.86300
C1669       C  0.62373342  0.39113999  0.25274336     1.07900
H1670       H  0.58398666  0.48952065  0.31822765     0.39700
O1671       O  0.61183943  0.48669201  0.32191725    -1.08600
O1672       O  0.65392447  0.45022218  0.35381592    -0.65200
Ni1673     Ni  0.59147537  0.43112576  0.34118584     1.26300
O1674       O  0.57034121  0.44779816  0.27690679    -0.65400
O1675       O  0.57464749  0.46047348  0.37031236    -0.77700
C1676       C  0.52937877  0.34165203  0.35269216     0.85700
O1677       O  0.57120546  0.37299053  0.35884601    -0.64900
Ni1678     Ni  0.65787369  0.54842986  0.33626294     1.27400
Ni1679     Ni  0.62872726  0.46203753  0.29210224     1.26100
H1680       H  0.63246606  0.39887259  0.31440483     0.40200
N1681       N  0.35633846  0.76106022  0.08377405    -0.02300
C1682       C  0.37833856  0.77425213  0.10764590     0.00300
C1683       C  0.39443154  0.74206418  0.11342380    -0.22600
C1684       C  0.38941321  0.71453989  0.09138234    -0.22800
C1685       C  0.36620928  0.72695792  0.07352799     0.00200
H1686       H  0.41685517  0.74533727  0.12980556     0.14000
H1687       H  0.40436666  0.69090821  0.08826840     0.14000
N1688       N  0.61523594  0.86085298  0.06787777    -0.02300
C1689       C  0.65499065  0.89640182  0.05570349     0.00300
C1690       C  0.69047404  0.92382877  0.07402496    -0.22600
C1691       C  0.66932761  0.91377039  0.09777897    -0.22800
C1692       C  0.62278159  0.87841411  0.09317823     0.00200
H1693       H  0.72574168  0.95386167  0.07026703     0.14000
H1694       H  0.68483802  0.93333239  0.11596474     0.14000
N1695       N  0.52015077  0.67683964  0.05556127    -0.02300
C1696       C  0.51876629  0.66849678  0.02913691     0.00300
C1697       C  0.52293319  0.96103664  0.02306902    -0.22600
C1698       C  0.51621218  0.93750138  0.04552331    -0.22800
C1699       C  0.51127233  0.96611006  0.06468843     0.00200
H1700       H  0.51907117  0.94371553  0.00403164     0.14000
H1701       H  0.51116053  0.90124871  0.04740035     0.14000
C1702       C  0.56146450  0.72209269  0.06530111     0.04300
C1703       C  0.56549448  0.76873579  0.06204720    -0.11800
C1704       C  0.61000952  0.81214650  0.06648029     0.01800
C1705       C  0.65040929  0.80774513  0.07290578    -0.10400
C1706       C  0.64724528  0.76331339  0.07695998     0.04300
C1707       C  0.60255632  0.72086864  0.07397950    -0.09800
H1708       H  0.53462337  0.77114915  0.05603072     0.09900
H1709       H  0.68506624  0.83952981  0.07575946     0.07400
H1710       H  0.60057526  0.68631041  0.07720539     0.07300
N1711       N  0.53803036  0.96769694  0.91986930    -0.02300
C1712       C  0.55770296  0.97811794  0.94437794     0.00300
C1713       C  0.57492479  0.69364160  0.95038903    -0.22600
C1714       C  0.57025459  0.71465404  0.92856970    -0.22800
C1715       C  0.54815731  0.67797255  0.91013483     0.00200
H1716       H  0.59658797  0.71364825  0.96718369     0.14000
H1717       H  0.58437408  0.75298870  0.92596266     0.14000
N1718       N  0.46497006  0.78896148  0.90952936    -0.02300
C1719       C  0.50775473  0.79848112  0.89856059     0.00300
C1720       C  0.54186086  0.81021432  0.91770632    -0.22600
C1721       C  0.51760038  0.79879851  0.94082302    -0.22800
C1722       C  0.46902979  0.77746016  0.93457648     0.00200
H1723       H  0.57858810  0.81880932  0.91495625     0.14000
H1724       H  0.53266376  0.79523166  0.95884994     0.14000
C1725       C  0.45877237  0.83145593  0.90796570     0.04300
C1726       C  0.49652048  0.87736368  0.91734867    -0.11800
C1727       C  0.49910819  0.92064872  0.91089880     0.01800
C1728       C  0.46062186  0.91716476  0.89716209    -0.10400
C1729       C  0.41884421  0.87418327  0.89169491     0.04300
C1730       C  0.41847723  0.82986861  0.89574796    -0.09800
H1731       H  0.52605328  0.88007950  0.92823717     0.09900
H1732       H  0.45995310  0.94811214  0.89175311     0.07400
H1733       H  0.38820564  0.79549228  0.88966363     0.07300
N1734       N  0.37926539  0.87912802  0.88173767    -0.02300
C1735       C  0.36369525  0.86928443  0.85663016     0.00300
C1736       C  0.34584393  0.89924124  0.84952110    -0.22600
C1737       C  0.34951537  0.92803965  0.87067411    -0.22800
C1738       C  0.37007868  0.91533818  0.88993082     0.00200
H1739       H  0.65946505  0.89600777  0.83192949     0.14000
H1740       H  0.33710439  0.95422032  0.87216001     0.14000
O1741       O  0.58292783  0.94084661  0.97596807    -0.79700
O1742       O  0.45468275  0.68357890  0.02065579    -0.64400
O1743       O  0.34432650  0.67365285  0.98829531    -1.11000
C1744       C  0.37899026  0.93827169  0.91608052     1.07200
O1745       O  0.48658925  0.66104363  0.98783646    -0.77600
O1746       O  0.46199214  0.71260882  0.95804505    -0.65200
Ni1747     Ni  0.61809481  0.64384864  0.00709465     1.34900
C1748       C  0.43848823  0.72771606  0.94548448     0.85900
O1749       O  0.39540034  0.71742212  0.03261073    -0.78100
O1750       O  0.64883632  0.68038879  0.03875157    -0.88400
C1751       C  0.48595320  0.67382272  0.01149849     0.85500
O1752       O  0.61982175  0.92130407  0.02129000    -0.66600
O1753       O  0.42087886  0.96950682  0.92304972    -0.85900
C1754       C  0.65664328  0.92395461  0.03206176     0.86300
C1755       C  0.35849260  0.70849789  0.04634138     1.07900
H1756       H  0.38123331  0.93330523  0.98265299     0.39700
O1757       O  0.39419035  0.96602399  0.97655885    -1.08600
O1758       O  0.39309037  0.70011841  0.94120243    -0.65200
Ni1759     Ni  0.34577016  0.97114257  0.95834059     1.26300
O1760       O  0.36514734  0.95657543  0.02625449    -0.65400
O1761       O  0.34362556  0.93039899  0.92997514    -0.77700
C1762       C  0.58936947  0.96050665  0.95376689     0.85700
O1763       O  0.62924388  0.97619105  0.94231050    -0.64900
Ni1764     Ni  0.45021604  0.98201300  0.95697064     1.27400
Ni1765     Ni  0.39824189  0.67744831  0.00459372     1.26100
H1766       H  0.35141001  0.70582618  0.98348839     0.40200
N1767       N  0.55501057  0.88115766  0.73001081    -0.02300
C1768       C  0.52202633  0.86753050  0.71054071     0.00300
C1769       C  0.49475139  0.81723004  0.70909665    -0.22600
C1770       C  0.50870384  0.79982994  0.72898582    -0.22800
C1771       C  0.54596079  0.83922041  0.74133596     0.00200
H1772       H  0.46240330  0.79562306  0.69790490     0.14000
H1773       H  0.48956061  0.76300053  0.73575016     0.14000
N1774       N  0.38963994  0.97571329  0.75503764    -0.02300
C1775       C  0.39177506  0.64080658  0.78161152     0.00300
C1776       C  0.39195178  0.93212603  0.78858842    -0.22600
C1777       C  0.39693520  0.91063729  0.76635616    -0.22800
C1778       C  0.39788554  0.93912068  0.74655428     0.00200
H1779       H  0.40037945  0.59122882  0.80760363     0.14000
H1780       H  0.40461089  0.88092992  0.76499431     0.14000
N1781       N  0.62946617  0.72511254  0.72907475    -0.02300
C1782       C  0.59001009  0.72517289  0.73924514     0.00300
C1783       C  0.56027806  0.72373286  0.71969195    -0.22600
C1784       C  0.25087076  0.72908136  0.69675347    -0.22800
C1785       C  0.29404653  0.73260877  0.70300880     0.00200
H1786       H  0.52768754  0.72505854  0.72201014     0.14000
H1787       H  0.24139838  0.73809724  0.67837919     0.14000
C1788       C  0.34863153  0.64353584  0.74411302     0.04300
C1789       C  0.34595126  0.68685904  0.74176627    -0.11800
C1790       C  0.30142139  0.68357943  0.73553426     0.01800
C1791       C  0.59352038  0.63724281  0.73412577    -0.10400
C1792       C  0.59635389  0.92829658  0.73461378     0.04300
C1793       C  0.30750879  0.93211561  0.73824076    -0.09800
H1794       H  0.37750499  0.72202483  0.74476140     0.09900
H1795       H  0.55891361  0.63430478  0.73203525     0.07400
H1796       H  0.30983340  0.89928356  0.73704045     0.07300
O1797       O  0.33928936  0.81269183  0.82139658    -0.79700
O1798       O  0.46236398  0.71552588  0.78713030    -0.64400
O1799       O  0.58203641  0.79790388  0.81944164    -1.11000
C1800       C  0.53797938  0.68731427  0.88370088     1.07200
O1801       O  0.41985312  0.68016250  0.82248112    -0.77600
O1802       O  0.47624321  0.75129509  0.85926756    -0.65200
Ni1803     Ni  0.63747489  0.82823814  0.79738582     1.34900
C1804       C  0.51288765  0.77757348  0.87322738     0.85900
O1805       O  0.52760469  0.80846625  0.78260197    -0.78100
O1806       O  0.60470554  0.84375416  0.77088144    -0.88400
C1807       C  0.42495187  0.68312036  0.79780272     0.85500
O1808       O  0.62602174  0.77180282  0.77738282    -0.66600
O1809       O  0.49981853  0.68904066  0.88028049    -0.85900
C1810       C  0.58727262  0.74304825  0.76588630     0.86300
C1811       C  0.56139813  0.83317748  0.76705242     1.07900
H1812       H  0.51711503  0.68216205  0.81685809     0.39700
O1813       O  0.51718643  0.70914073  0.82631520    -1.08600
O1814       O  0.55249823  0.77794446  0.86910272    -0.65200
Ni1815     Ni  0.57716493  0.74944585  0.84298013     1.26300
O1816       O  0.54665818  0.73502964  0.77452378    -0.65400
O1817       O  0.56975758  0.70035467  0.86623481    -0.77700
C1818       C  0.33870260  0.82032292  0.84572803     0.85700
O1819       O  0.63728493  0.79050837  0.85901848    -0.64900
Ni1820     Ni  0.46362227  0.68711061  0.84989796     1.27400
Ni1821     Ni  0.52205624  0.75792788  0.80336036     1.26100
H1822       H  0.58012840  0.82364514  0.82906388     0.40200
N1823       N  0.48791412  0.77290385  0.56837697    -0.02300
C1824       C  0.49490800  0.81616134  0.57912014     0.00300
C1825       C  0.50702590  0.84965751  0.55965632    -0.22600
C1826       C  0.49451226  0.82325459  0.53666191    -0.22800
C1827       C  0.47468310  0.77478669  0.54325993     0.00200
H1828       H  0.51604665  0.88730719  0.56190654     0.14000
H1829       H  0.48900753  0.83662681  0.51856566     0.14000
N1830       N  0.66688838  0.84286299  0.56314320    -0.02300
C1831       C  0.37179667  0.85009210  0.57770703     0.00300
C1832       C  0.41246246  0.86887535  0.56297571    -0.22600
C1833       C  0.39974136  0.87024281  0.53810339    -0.22800
C1834       C  0.35194759  0.85703024  0.53862666     0.00200
H1835       H  0.44818795  0.88366189  0.56992676     0.14000
H1836       H  0.42486409  0.88854541  0.52251054     0.14000
N1837       N  0.57065832  0.67472324  0.58443022    -0.02300
C1838       C  0.60157172  0.66052482  0.57401317     0.00300
C1839       C  0.60835367  0.96456529  0.59095463    -0.22600
C1840       C  0.58305303  0.96175838  0.61279289    -0.22800
C1841       C  0.56101623  0.65544550  0.60855844     0.00200
H1842       H  0.63041904  0.94775223  0.58800045     0.14000
H1843       H  0.57915756  0.94024217  0.62963115     0.14000
C1844       C  0.53072374  0.76732777  0.57017211     0.04300
C1845       C  0.52741000  0.72216276  0.57637600    -0.11800
C1846       C  0.56959461  0.71839444  0.57804020     0.01800
C1847       C  0.61361863  0.75955570  0.57491066    -0.10400
C1848       C  0.61889123  0.80370757  0.56796191     0.04300
C1849       C  0.57759410  0.80761869  0.56513298    -0.09800
H1850       H  0.49279884  0.69069177  0.57966759     0.09900
H1851       H  0.64514630  0.75630347  0.57687560     0.07400
H1852       H  0.58262447  0.84237537  0.55943337     0.07300
O1853       O  0.33534206  0.76058608  0.66227894    -0.79700
O1854       O  0.48099021  0.95076310  0.61785936    -0.64400
O1855       O  0.42991909  0.83650466  0.65632349    -1.11000
C1856       C  0.41178012  0.93218522  0.72024833     1.07200
O1857       O  0.53145394  0.99088024  0.64993766    -0.77600
O1858       O  0.52020576  0.93468949  0.69020926    -0.65200
Ni1859     Ni  0.38980415  0.77502520  0.63941215     1.34900
C1860       C  0.49879154  0.89491005  0.70203694     0.85900
O1861       O  0.47519207  0.86351042  0.60816576    -0.78100
O1862       O  0.44218944  0.78398620  0.61625615    -0.88400
C1863       C  0.52206714  0.98159762  0.62563779     0.85500
O1864       O  0.36621933  0.79670024  0.61100213    -0.66600
O1865       O  0.45467598  0.96185201  0.71306458    -0.85900
C1866       C  0.37378653  0.83881773  0.60525304     0.86300
C1867       C  0.47012245  0.82129410  0.60306765     1.07900
H1868       H  0.41651028  0.93155015  0.65837401     0.39700
O1869       O  0.43827872  0.92083056  0.66397111    -1.08600
O1870       O  0.45439505  0.87426033  0.70597108    -0.65200
Ni1871     Ni  0.40458043  0.86240659  0.68232795     1.26300
O1872       O  0.39572387  0.87474262  0.62063555    -0.65400
O1873       O  0.38356861  0.89292262  0.70768658    -0.77700
C1874       C  0.33628191  0.76502127  0.68732681     0.85700
O1875       O  0.36976134  0.80159252  0.69903977    -0.64900
Ni1876     Ni  0.49156420  0.97370228  0.68095595     1.27400
Ni1877     Ni  0.45575382  0.89250522  0.63612528     1.26100
H1878       H  0.45672278  0.83449624  0.66304472     0.40200
N1879       N  0.56235040  0.88553832  0.40965055    -0.02300
C1880       C  0.55701842  0.84235254  0.39980678     0.00300
C1881       C  0.54558170  0.80996216  0.41978065    -0.22600
C1882       C  0.55603303  0.83724654  0.44242670    -0.22800
C1883       C  0.57528366  0.88520999  0.43500785     0.00200
H1884       H  0.53887870  0.77299608  0.41830775     0.14000
H1885       H  0.56182463  0.82526089  0.46092190     0.14000
N1886       N  0.38304585  0.81533417  0.41240496    -0.02300
C1887       C  0.34519044  0.80721522  0.39707314     0.00300
C1888       C  0.63710844  0.78622040  0.41131935    -0.22600
C1889       C  0.64902591  0.78599481  0.43648744    -0.22800
C1890       C  0.36381850  0.80099739  0.43681810     0.00200
H1891       H  0.60131417  0.76857189  0.40416356     0.14000
H1892       H  0.62341263  0.76684756  0.45174822     0.14000
N1893       N  0.48036074  0.98452525  0.39359376    -0.02300
C1894       C  0.45064359  0.00025973  0.40393848     0.00300
C1895       C  0.44766335  0.03284383  0.38767548    -0.22600
C1896       C  0.47400268  0.70263789  0.36620774    -0.22800
C1897       C  0.49271193  0.00580854  0.37009398     0.00200
H1898       H  0.42740123  0.71825798  0.39077101     0.14000
H1899       H  0.48015485  0.72563854  0.34972827     0.14000
C1900       C  0.51941291  0.89078133  0.40691315     0.04300
C1901       C  0.47235238  0.85015825  0.41083015    -0.11800
C1902       C  0.43113888  0.85453177  0.40812780     0.01800
C1903       C  0.43652287  0.89920492  0.40215385    -0.10400
C1904       C  0.48075884  0.94040615  0.39974070     0.04300
C1905       C  0.52286533  0.93638450  0.40156356    -0.09800
H1906       H  0.46729642  0.81501491  0.41581514     0.09900
H1907       H  0.40492333  0.90251018  0.40010592     0.07400
H1908       H  0.55762102  0.96812635  0.39906477     0.07300
O1909       O  0.33228718  0.87867110  0.49880986    -0.79700
O1910       O  0.35796478  0.72638932  0.44501439    -0.64400
O1911       O  0.38292854  0.97568406  0.48400274    -1.11000
C1912       C  0.62910960  0.67439103  0.54924808     1.07200
O1913       O  0.38369001  0.78141451  0.47743916    -0.77600
O1914       O  0.40180090  0.76276424  0.52579701    -0.65200
Ni1915     Ni  0.37318634  0.91534167  0.47003783     1.34900
C1916       C  0.42505592  0.74183215  0.53249077     0.85900
O1917       O  0.40278061  0.01144063  0.43430015    -0.78100
O1918       O  0.41501116  0.94870190  0.44097129    -0.88400
C1919       C  0.37294307  0.76962803  0.45340189     0.85500
O1920       O  0.64978112  0.89780457  0.45035288    -0.66600
O1921       O  0.63702199  0.71204744  0.53667029    -0.85900
C1922       C  0.62528393  0.91813918  0.44502250     0.86300
C1923       C  0.42153990  0.98544756  0.42805881     1.07900
H1924       H  0.63392266  0.99965178  0.48941779     0.39700
O1925       O  0.33436554  0.68459804  0.49327084    -1.08600
O1926       O  0.40820785  0.69598281  0.52926240    -0.65200
Ni1927     Ni  0.34815363  0.97762265  0.51373529     1.26300
O1928       O  0.64123868  0.96355592  0.44900432    -0.65400
O1929       O  0.64601117  0.98034824  0.54244716    -0.77700
C1930       C  0.34312960  0.88941591  0.52285705     0.85700
O1931       O  0.35798387  0.93231009  0.53185182    -0.64900
Ni1932     Ni  0.34425531  0.74500642  0.50694001     1.27400
Ni1933     Ni  0.36849866  0.68199906  0.46341319     1.26100
H1934       H  0.41662393  0.99426073  0.48802186     0.40200
N1935       N  0.64359517  0.00817313  0.22121151    -0.02300
C1936       C  0.63912274  0.04813207  0.22697174     0.00300
C1937       C  0.63103918  0.06610651  0.20466299    -0.22600
C1938       C  0.62645726  0.03395710  0.18482275    -0.22800
C1939       C  0.63022250  0.99637188  0.19586271     0.00200
H1940       H  0.62172575  0.09456289  0.20359574     0.14000
H1941       H  0.61145520  0.03265102  0.16582048     0.14000
N1942       N  0.48064311  0.75996027  0.24670588    -0.02300
C1943       C  0.48804428  0.80513001  0.24167076     0.00300
C1944       C  0.49669063  0.83257641  0.26439079    -0.22600
C1945       C  0.49823178  0.80466193  0.28383752    -0.22800
C1946       C  0.49229379  0.76180898  0.27211126     0.00200
H1947       H  0.50757693  0.87084963  0.26611754     0.14000
H1948       H  0.51223732  0.81843652  0.30322289     0.14000
N1949       N  0.39290767  0.91529697  0.23966176    -0.02300
C1950       C  0.39511880  0.89520402  0.26246542     0.00300
C1951       C  0.40226355  0.85644252  0.25616983    -0.22600
C1952       C  0.40016024  0.85067186  0.22947886    -0.22800
C1953       C  0.39695364  0.88878067  0.21944510     0.00200
H1954       H  0.40154015  0.83029946  0.26957861     0.14000
H1955       H  0.40348117  0.82298882  0.21832013     0.14000
C1956       C  0.35222797  0.00639388  0.22948625     0.04300
C1957       C  0.39636022  0.71642423  0.23218199    -0.11800
C1958       C  0.43890591  0.71600014  0.23754480     0.01800
C1959       C  0.43701725  0.00425142  0.23951964    -0.10400
C1960       C  0.39351723  0.96070080  0.23729923     0.04300
C1961       C  0.35122413  0.96175215  0.23205810    -0.09800
H1962       H  0.39737599  0.75085213  0.23074156     0.09900
H1963       H  0.46923543  0.00286172  0.24353587     0.07400
H1964       H  0.65118280  0.92798250  0.22986209     0.07300
O1965       O  0.59960144  0.87145625  0.13742316    -0.79700
O1966       O  0.46756328  0.92676348  0.19711565    -0.64400
O1967       O  0.51042877  0.85302452  0.15774377    -1.11000
C1968       C  0.49944660  0.94740626  0.09128550     1.08400
O1969       O  0.40318780  0.89812885  0.17252701    -0.77600
O1970       O  0.39806732  0.85446269  0.12437978    -0.65200
Ni1971     Ni  0.56368354  0.84724795  0.16934819     1.34900
C1972       C  0.41236569  0.82567205  0.11571497     0.85900
O1973       O  0.48849155  0.85800802  0.21039454    -0.78100
O1974       O  0.53031494  0.81970691  0.20158906    -0.88400
C1975       C  0.42319383  0.90926062  0.19515382     0.85500
O1976       O  0.60207525  0.91190115  0.18492123    -0.66600
O1977       O  0.46390754  0.94615854  0.10400078    -0.85900
C1978       C  0.59294898  0.94652429  0.18845237     0.86300
C1979       C  0.50240420  0.82814908  0.21607446     1.07900
H1980       H  0.51543246  0.95419401  0.14940414     0.39700
O1981       O  0.49113757  0.92034850  0.14798162    -1.08600
O1982       O  0.45637231  0.83747295  0.11493035    -0.65200
Ni1983     Ni  0.51669663  0.88870132  0.12726711     1.26300
O1984       O  0.55156563  0.94105351  0.18613106    -0.65400
O1985       O  0.52258207  0.92667404  0.09843507    -0.77700
C1986       C  0.58631354  0.86588472  0.11359697     0.85700
O1987       O  0.54496020  0.85740370  0.10735601    -0.64900
Ni1988     Ni  0.43432592  0.92080342  0.13813255     1.27400
Ni1989     Ni  0.48961030  0.88932972  0.17886231     1.26100
H1990       H  0.48387481  0.82041064  0.15564488     0.40200
O1991       O  0.51764941  0.99537874  0.32892220    -0.79700
O1992       O  0.65199746  0.85599926  0.27667642    -0.64400
O1993       O  0.60595298  0.73757135  0.31105429    -1.11000
C1994       C  0.58176798  0.83685047  0.37594480     1.07200
O1995       O  0.37167042  0.89200151  0.30821275    -0.77600
O1996       O  0.35389389  0.86172609  0.36294682    -0.65200
Ni1997     Ni  0.55482798  0.01140673  0.29698126     1.34900
C1998       C  0.67725295  0.81902753  0.36923667     0.85900
O1999       O  0.64377787  0.76824304  0.26173217    -0.78100
O2000       O  0.58868007  0.02206019  0.26394693    -0.88400
C2001       C  0.36069863  0.88545134  0.28366584     0.85500
O2002       O  0.51592944  0.70535202  0.28625617    -0.66600
O2003       O  0.61101475  0.87455938  0.36317157    -0.85900
C2004       C  0.52771596  0.74773006  0.27888675     0.86300
C2005       C  0.62373345  0.72447341  0.25274333     1.07900
H2006       H  0.58398685  0.82285392  0.31822768     0.39700
O2007       O  0.61183940  0.82002533  0.32191725    -1.08600
O2008       O  0.65392443  0.78355543  0.35381592    -0.65200
Ni2009     Ni  0.59147536  0.76445907  0.34118584     1.26300
O2010       O  0.57034127  0.78113158  0.27690679    -0.65400
O2011       O  0.57464749  0.79380684  0.37031234    -0.77700
C2012       C  0.52937868  0.67498530  0.35269213     0.85700
O2013       O  0.57120535  0.70632384  0.35884602    -0.64900
Ni2014     Ni  0.65787360  0.88176323  0.33626294     1.27400
Ni2015     Ni  0.62872727  0.79537087  0.29210223     1.26100
H2016       H  0.63246607  0.73220590  0.31440476     0.40200
N2017       N  0.68967180  0.09439364  0.08377403    -0.02300
C2018       C  0.71167191  0.10758552  0.10764588     0.00300
C2019       C  0.72776480  0.07539750  0.11342378    -0.22600
C2020       C  0.72274633  0.04787317  0.09138232    -0.22800
C2021       C  0.69954255  0.06029130  0.07352796     0.00200
H2022       H  0.75018850  0.07867056  0.12980549     0.14000
H2023       H  0.73769969  0.02424143  0.08826837     0.14000
N2024       N  0.94856928  0.19418634  0.06787778    -0.02300
C2025       C  0.98832401  0.22973524  0.05570350     0.00300
C2026       C  0.02380740  0.25716222  0.07402495    -0.22600
C2027       C  0.00266098  0.24710376  0.09777894    -0.22800
C2028       C  0.95611500  0.21174744  0.09317825     0.00200
H2029       H  0.05907504  0.28719512  0.07026704     0.14000
H2030       H  0.01817141  0.26666579  0.11596470     0.14000
N2031       N  0.85348409  0.01017291  0.05556126    -0.02300
C2032       C  0.85209964  0.00183004  0.02913691     0.00300
C2033       C  0.85626643  0.29436985  0.02306901    -0.22600
C2034       C  0.84954553  0.27083465  0.04552333    -0.22800
C2035       C  0.84460568  0.29944340  0.06468842     0.00200
H2036       H  0.85240422  0.27704866  0.00403164     0.14000
H2037       H  0.84449391  0.23458202  0.04740041     0.14000
C2038       C  0.89479783  0.05542598  0.06530110     0.04300
C2039       C  0.89882774  0.10206904  0.06204722    -0.11800
C2040       C  0.94334282  0.14547984  0.06648028     0.01800
C2041       C  0.98374263  0.14107851  0.07290578    -0.10400
C2042       C  0.98057862  0.09664678  0.07695998     0.04300
C2043       C  0.93588968  0.05420200  0.07397948    -0.09800
H2044       H  0.86795655  0.10448228  0.05603076     0.09900
H2045       H  0.01839954  0.17286322  0.07575947     0.07400
H2046       H  0.93390866  0.01964377  0.07720538     0.07300
N2047       N  0.87136375  0.30103033  0.91986929    -0.02300
C2048       C  0.89103633  0.31145135  0.94437794     0.00300
C2049       C  0.90825814  0.02697491  0.95038901    -0.22600
C2050       C  0.90358772  0.04798716  0.92856971    -0.22800
C2051       C  0.88149053  0.01130577  0.91013486     0.00200
H2052       H  0.92992143  0.04698173  0.96718361     0.14000
H2053       H  0.91770710  0.08632181  0.92596266     0.14000
N2054       N  0.79830339  0.12229484  0.90952934    -0.02300
C2055       C  0.84108810  0.13181453  0.89856059     0.00300
C2056       C  0.87519427  0.14354775  0.91770635    -0.22600
C2057       C  0.85093365  0.13213179  0.94082304    -0.22800
C2058       C  0.80236304  0.11079346  0.93457647     0.00200
H2059       H  0.91192154  0.15214279  0.91495630     0.14000
H2060       H  0.86599687  0.12856479  0.95884998     0.14000
C2061       C  0.79210577  0.16478934  0.90796569     0.04300
C2062       C  0.82985392  0.21069709  0.91734864    -0.11800
C2063       C  0.83244159  0.25398211  0.91089879     0.01800
C2064       C  0.79395524  0.25049815  0.89716212    -0.10400
C2065       C  0.75217761  0.20751669  0.89169492     0.04300
C2066       C  0.75181065  0.16320207  0.89574799    -0.09800
H2067       H  0.85938674  0.21341293  0.92823714     0.09900
H2068       H  0.79328648  0.28144551  0.89175318     0.07400
H2069       H  0.72153904  0.12882575  0.88966372     0.07300
N2070       N  0.71259880  0.21246143  0.88173767    -0.02300
C2071       C  0.69702857  0.20261771  0.85663015     0.00300
C2072       C  0.67917722  0.23257448  0.84952104    -0.22600
C2073       C  0.68284878  0.26137290  0.87067405    -0.22800
C2074       C  0.70341215  0.24867162  0.88993079     0.00200
H2075       H  0.99279835  0.22934099  0.83192949     0.14000
H2076       H  0.67043783  0.28755360  0.87215994     0.14000
O2077       O  0.91626117  0.27418009  0.97596811    -0.79700
O2078       O  0.78801617  0.01691229  0.02065579    -0.64400
O2079       O  0.67765985  0.00698606  0.98829532    -1.11000
C2080       C  0.71232368  0.27160517  0.91608048     1.07200
O2081       O  0.81992253  0.99437685  0.98783648    -0.77600
O2082       O  0.79532536  0.04594212  0.95804508    -0.65200
Ni2083     Ni  0.95142819  0.97718189  0.00709466     1.34900
C2084       C  0.77182146  0.06104933  0.94548448     0.85900
O2085       O  0.72873362  0.05075540  0.03261070    -0.78100
O2086       O  0.98216972  0.01372202  0.03875159    -0.88400
C2087       C  0.81928654  0.00715600  0.01149849     0.85500
O2088       O  0.95315519  0.25463753  0.02128999    -0.66600
O2089       O  0.75421224  0.30284024  0.92304972    -0.85900
C2090       C  0.98997669  0.25728806  0.03206177     0.86300
C2091       C  0.69182588  0.04183121  0.04634135     1.07900
H2092       H  0.71456657  0.26663829  0.98265305     0.39700
O2093       O  0.72752371  0.29935730  0.97655886    -1.08600
O2094       O  0.72642364  0.03345165  0.94120240    -0.65200
Ni2095     Ni  0.67910352  0.30447584  0.95834059     1.26300
O2096       O  0.69848078  0.28990883  0.02625453    -0.65400
O2097       O  0.67695897  0.26373236  0.92997512    -0.77700
C2098       C  0.92270282  0.29384007  0.95376690     0.85700
O2099       O  0.96257721  0.30952432  0.94231048    -0.64900
Ni2100     Ni  0.78354937  0.31534635  0.95697064     1.27400
Ni2101     Ni  0.73157522  0.01078155  0.00459371     1.26100
H2102       H  0.68474338  0.03915939  0.98348840     0.40200
N2103       N  0.88834386  0.21449103  0.73001080    -0.02300
C2104       C  0.85535963  0.20086384  0.71054067     0.00300
C2105       C  0.82808468  0.15056333  0.70909660    -0.22600
C2106       C  0.84203707  0.13316330  0.72898584    -0.22800
C2107       C  0.87929405  0.17255381  0.74133598     0.00200
H2108       H  0.79573666  0.12895631  0.69790480     0.14000
H2109       H  0.82289385  0.09633390  0.73575019     0.14000
N2110       N  0.72297328  0.30904655  0.75503764    -0.02300
C2111       C  0.72510849  0.97413996  0.78161153     0.00300
C2112       C  0.72528516  0.26545933  0.78858841    -0.22600
C2113       C  0.73026842  0.24397044  0.76635615    -0.22800
C2114       C  0.73121882  0.27245390  0.74655429     0.00200
H2115       H  0.73371297  0.92456229  0.80760367     0.14000
H2116       H  0.73794410  0.21426307  0.76499432     0.14000
N2117       N  0.96279947  0.05844584  0.72907476    -0.02300
C2118       C  0.92334336  0.05850622  0.73924514     0.00300
C2119       C  0.89361135  0.05706631  0.71969195    -0.22600
C2120       C  0.58420413  0.06241473  0.69675348    -0.22800
C2121       C  0.62737985  0.06594200  0.70300880     0.00200
H2122       H  0.86102091  0.05839211  0.72201012     0.14000
H2123       H  0.57473189  0.07143071  0.67837919     0.14000
C2124       C  0.68196490  0.97686918  0.74411304     0.04300
C2125       C  0.67928459  0.02019233  0.74176626    -0.11800
C2126       C  0.63475478  0.01691271  0.73553427     0.01800
C2127       C  0.92685372  0.97057614  0.73412578    -0.10400
C2128       C  0.92968712  0.26162998  0.73461377     0.04300
C2129       C  0.64084213  0.26544898  0.73824076    -0.09800
H2130       H  0.71083830  0.05535811  0.74476136     0.09900
H2131       H  0.89224697  0.96763814  0.73203527     0.07400
H2132       H  0.64316671  0.23261690  0.73704043     0.07300
O2133       O  0.67262251  0.14602506  0.82139658    -0.79700
O2134       O  0.79569734  0.04885927  0.78713031    -0.64400
O2135       O  0.91536981  0.13123728  0.81944165    -1.11000
C2136       C  0.87131266  0.02064760  0.88370092     1.07200
O2137       O  0.75318642  0.01349594  0.82248113    -0.77600
O2138       O  0.80957654  0.08462850  0.85926757    -0.65200
Ni2139     Ni  0.97080826  0.16157150  0.79738584     1.34900
C2140       C  0.84622101  0.11090692  0.87322737     0.85900
O2141       O  0.86093799  0.14179961  0.78260196    -0.78100
O2142       O  0.93803890  0.17708766  0.77088148    -0.88400
C2143       C  0.75828525  0.01645375  0.79780273     0.85500
O2144       O  0.95935499  0.10513615  0.77738283    -0.66600
O2145       O  0.83315183  0.02237406  0.88028052    -0.85900
C2146       C  0.92060588  0.07638162  0.76588630     0.86300
C2147       C  0.89473144  0.16651091  0.76705244     1.07900
H2148       H  0.85044828  0.01549571  0.81685814     0.39700
O2149       O  0.85051975  0.04247412  0.82631521    -1.08600
O2150       O  0.88583160  0.11127791  0.86910271    -0.65200
Ni2151     Ni  0.91049829  0.08277923  0.84298017     1.26300
O2152       O  0.87999145  0.06836309  0.77452376    -0.65400
O2153       O  0.90309088  0.03368803  0.86623486    -0.77700
C2154       C  0.67203590  0.15365619  0.84572803     0.85700
O2155       O  0.97061834  0.12384161  0.85901854    -0.64900
Ni2156     Ni  0.79695555  0.02044402  0.84989799     1.27400
Ni2157     Ni  0.85538958  0.09126134  0.80336037     1.26100
H2158       H  0.91346188  0.15697858  0.82906388     0.40200
N2159       N  0.82124741  0.10623718  0.56837699    -0.02300
C2160       C  0.82824132  0.14949465  0.57912015     0.00300
C2161       C  0.84035927  0.18299075  0.55965629    -0.22600
C2162       C  0.82784558  0.15658789  0.53666189    -0.22800
C2163       C  0.80801635  0.10811999  0.54325994     0.00200
H2164       H  0.84938006  0.22064047  0.56190646     0.14000
H2165       H  0.82234093  0.16996019  0.51856564     0.14000
N2166       N  0.00022170  0.17619634  0.56314321    -0.02300
C2167       C  0.70513006  0.18342551  0.57770704     0.00300
C2168       C  0.74579597  0.20220893  0.56297574    -0.22600
C2169       C  0.73307471  0.20357627  0.53810341    -0.22800
C2170       C  0.68528089  0.19036356  0.53862668     0.00200
H2171       H  0.78152147  0.21699542  0.56992676     0.14000
H2172       H  0.75819732  0.22187874  0.52251049     0.14000
N2173       N  0.90399156  0.00805654  0.58443021    -0.02300
C2174       C  0.93490498  0.99385819  0.57401314     0.00300
C2175       C  0.94168713  0.29789853  0.59095464    -0.22600
C2176       C  0.91638628  0.29509161  0.61279284    -0.22800
C2177       C  0.89434962  0.98877893  0.60855846     0.00200
H2178       H  0.96375251  0.28108551  0.58800048     0.14000
H2179       H  0.91249070  0.27357539  0.62963112     0.14000
C2180       C  0.86405705  0.10066110  0.57017209     0.04300
C2181       C  0.86074335  0.05549611  0.57637597    -0.11800
C2182       C  0.90292795  0.05172779  0.57804019     0.01800
C2183       C  0.94695203  0.09288898  0.57491069    -0.10400
C2184       C  0.95222458  0.13704089  0.56796191     0.04300
C2185       C  0.91092738  0.14095200  0.56513295    -0.09800
H2186       H  0.82613218  0.02402505  0.57966758     0.09900
H2187       H  0.97847968  0.08963671  0.57687567     0.07400
H2188       H  0.91595774  0.17570866  0.55943334     0.07300
O2189       O  0.66867527  0.09391937  0.66227893    -0.79700
O2190       O  0.81432352  0.28409647  0.61785935    -0.64400
O2191       O  0.76325237  0.16983798  0.65632349    -1.11000
C2192       C  0.74511348  0.26551856  0.72024835     1.07200
O2193       O  0.86478724  0.32421361  0.64993765    -0.77600
O2194       O  0.85353902  0.26802281  0.69020923    -0.65200
Ni2195     Ni  0.72313740  0.10835849  0.63941215     1.34900
C2196       C  0.83212482  0.22824339  0.70203692     0.85900
O2197       O  0.80852527  0.19684371  0.60816574    -0.78100
O2198       O  0.77552274  0.11731950  0.61625616    -0.88400
C2199       C  0.85540046  0.31493100  0.62563777     0.85500
O2200       O  0.69955275  0.13003363  0.61100210    -0.66600
O2201       O  0.78800931  0.29518539  0.71306461    -0.85900
C2202       C  0.70711991  0.17215114  0.60525304     0.86300
C2203       C  0.80345570  0.15462739  0.60306764     1.07900
H2204       H  0.74984386  0.26488357  0.65837401     0.39700
O2205       O  0.77161207  0.25416399  0.66397110    -1.08600
O2206       O  0.78772832  0.20759369  0.70597110    -0.65200
Ni2207     Ni  0.73791375  0.19573997  0.68232795     1.26300
O2208       O  0.72905721  0.20807600  0.62063556    -0.65400
O2209       O  0.71690195  0.22625602  0.70768654    -0.77700
C2210       C  0.66961514  0.09835457  0.68732680     0.85700
O2211       O  0.70309452  0.13492590  0.69903975    -0.64900
Ni2212     Ni  0.82489755  0.30703568  0.68095596     1.27400
Ni2213     Ni  0.78908716  0.22583857  0.63612528     1.26100
H2214       H  0.79005604  0.16782952  0.66304474     0.40200
N2215       N  0.89568381  0.21887174  0.40965054    -0.02300
C2216       C  0.89035184  0.17568595  0.39980678     0.00300
C2217       C  0.87891498  0.14329548  0.41978064    -0.22600
C2218       C  0.88936628  0.17057990  0.44242670    -0.22800
C2219       C  0.90861700  0.21854339  0.43500784     0.00200
H2220       H  0.87221202  0.10632942  0.41830773     0.14000
H2221       H  0.89515788  0.15859423  0.46092188     0.14000
N2222       N  0.71637927  0.14866752  0.41240496    -0.02300
C2223       C  0.67852387  0.14054846  0.39707313     0.00300
C2224       C  0.97044175  0.11955354  0.41131934    -0.22600
C2225       C  0.98235924  0.11932805  0.43648743    -0.22800
C2226       C  0.69715193  0.13433073  0.43681810     0.00200
H2227       H  0.93464747  0.10190508  0.40416355     0.14000
H2228       H  0.95674601  0.10018084  0.45174823     0.14000
N2229       N  0.81369404  0.31785860  0.39359378    -0.02300
C2230       C  0.78397688  0.33359309  0.40393846     0.00300
C2231       C  0.78099669  0.36617724  0.38767548    -0.22600
C2232       C  0.80733602  0.03597119  0.36620778    -0.22800
C2233       C  0.82604532  0.33914196  0.37009402     0.00200
H2234       H  0.76073441  0.05159121  0.39077095     0.14000
H2235       H  0.81348813  0.05897170  0.34972826     0.14000
C2236       C  0.85274626  0.22411471  0.40691313     0.04300
C2237       C  0.80568576  0.18349164  0.41083012    -0.11800
C2238       C  0.76447229  0.18786513  0.40812780     0.01800
C2239       C  0.76985633  0.23253825  0.40215387    -0.10400
C2240       C  0.81409221  0.27373952  0.39974073     0.04300
C2241       C  0.85619865  0.26971784  0.40156357    -0.09800
H2242       H  0.80062977  0.14834829  0.41581512     0.09900
H2243       H  0.73825677  0.23584346  0.40010596     0.07400
H2244       H  0.89095432  0.30145967  0.39906479     0.07300
O2245       O  0.66562059  0.21200435  0.49880983    -0.79700
O2246       O  0.69129802  0.05972258  0.44501442    -0.64400
O2247       O  0.71626185  0.30901741  0.48400276    -1.11000
C2248       C  0.96244284  0.00772443  0.54924805     1.07200
O2249       O  0.71702350  0.11474785  0.47743916    -0.77600
O2250       O  0.73513416  0.09609753  0.52579706    -0.65200
Ni2251     Ni  0.70651973  0.24867505  0.47003782     1.34900
C2252       C  0.75838915  0.07516543  0.53249080     0.85900
O2253       O  0.73611399  0.34477406  0.43430016    -0.78100
O2254       O  0.74834452  0.28203532  0.44097128    -0.88400
C2255       C  0.70627648  0.10296135  0.45340189     0.85500
O2256       O  0.98311442  0.23113793  0.45035292    -0.66600
O2257       O  0.97035524  0.04538085  0.53667026    -0.85900
C2258       C  0.95861725  0.25147256  0.44502251     0.86300
C2259       C  0.75487324  0.31878096  0.42805881     1.07900
H2260       H  0.96725611  0.33298512  0.48941781     0.39700
O2261       O  0.66769889  0.01793139  0.49327084    -1.08600
O2262       O  0.74154106  0.02931608  0.52926242    -0.65200
Ni2263     Ni  0.68148687  0.31095597  0.51373527     1.26300
O2264       O  0.97457205  0.29688931  0.44900430    -0.65400
O2265       O  0.97934447  0.31368146  0.54244715    -0.77700
C2266       C  0.67646279  0.22274915  0.52285704     0.85700
O2267       O  0.69131696  0.26564330  0.53185183    -0.64900
Ni2268     Ni  0.67758865  0.07833977  0.50694000     1.27400
Ni2269     Ni  0.70183194  0.01533234  0.46341319     1.26100
H2270       H  0.74995739  0.32759424  0.48802190     0.40200
N2271       N  0.97692847  0.34150640  0.22121154    -0.02300
C2272       C  0.97245607  0.38146538  0.22697175     0.00300
C2273       C  0.96437256  0.39943988  0.20466297    -0.22600
C2274       C  0.95979066  0.36729043  0.18482272    -0.22800
C2275       C  0.96355583  0.32970516  0.19586272     0.00200
H2276       H  0.95505906  0.42789618  0.20359572     0.14000
H2277       H  0.94478855  0.36598427  0.16582047     0.14000
N2278       N  0.81397641  0.09329355  0.24670587    -0.02300
C2279       C  0.82137750  0.13846328  0.24167076     0.00300
C2280       C  0.83002376  0.16590970  0.26439082    -0.22600
C2281       C  0.83156495  0.13799515  0.28383754    -0.22800
C2282       C  0.82562706  0.09514225  0.27211125     0.00200
H2283       H  0.84091007  0.20418290  0.26611757     0.14000
H2284       H  0.84557055  0.15176970  0.30322291     0.14000
N2285       N  0.72624106  0.24863030  0.23966177    -0.02300
C2286       C  0.72845211  0.22853726  0.26246541     0.00300
C2287       C  0.73559686  0.18977578  0.25616981    -0.22600
C2288       C  0.73349365  0.18400528  0.22947885    -0.22800
C2289       C  0.73028704  0.22211406  0.21944510     0.00200
H2290       H  0.73487340  0.16363264  0.26957856     0.14000
H2291       H  0.73681458  0.15632225  0.21832010     0.14000
C2292       C  0.68556135  0.33972723  0.22948626     0.04300
C2293       C  0.72969358  0.04975738  0.23218199    -0.11800
C2294       C  0.77223926  0.04933336  0.23754480     0.01800
C2295       C  0.77035062  0.33758473  0.23951963    -0.10400
C2296       C  0.72685062  0.29403412  0.23729925     0.04300
C2297       C  0.68455754  0.29508546  0.23205811    -0.09800
H2298       H  0.73070935  0.08418530  0.23074158     0.09900
H2299       H  0.80256880  0.33619499  0.24353586     0.07400
H2300       H  0.98451627  0.26131584  0.22986210     0.07300
O2301       O  0.93293486  0.20478975  0.13742318    -0.79700
O2302       O  0.80089668  0.26009683  0.19711567    -0.64400
O2303       O  0.84376205  0.18635783  0.15774376    -1.11000
C2304       C  0.83277996  0.28073966  0.09128549     1.08400
O2305       O  0.73652125  0.23146229  0.17252700    -0.77600
O2306       O  0.73140079  0.18779614  0.12437977    -0.65200
Ni2307     Ni  0.89701684  0.18058131  0.16934819     1.34900
C2308       C  0.74569911  0.15900544  0.11571497     0.85900
O2309       O  0.82182485  0.19134132  0.21039454    -0.78100
O2310       O  0.86364816  0.15304014  0.20158903    -0.88400
C2311       C  0.75652726  0.24259402  0.19515383     0.85500
O2312       O  0.93540850  0.24523446  0.18492127    -0.66600
O2313       O  0.79724093  0.27949197  0.10400078    -0.85900
C2314       C  0.92628227  0.27985760  0.18845239     0.86300
C2315       C  0.83573747  0.16148235  0.21607446     1.07900
H2316       H  0.84876581  0.28752739  0.14940419     0.39700
O2317       O  0.82447090  0.25368186  0.14798163    -1.08600
O2318       O  0.78970572  0.17080631  0.11493032    -0.65200
Ni2319     Ni  0.85002999  0.22203471  0.12726711     1.26300
O2320       O  0.88489892  0.27438684  0.18613105    -0.65400
O2321       O  0.85591544  0.26000744  0.09843508    -0.77700
C2322       C  0.91964699  0.19921816  0.11359699     0.85700
O2323       O  0.87829366  0.19073717  0.10735602    -0.64900
Ni2324     Ni  0.76765934  0.25413688  0.13813254     1.27400
Ni2325     Ni  0.82294360  0.22266304  0.17886231     1.26100
H2326       H  0.81720821  0.15374406  0.15564486     0.40200
O2327       O  0.85098273  0.32871211  0.32892222    -0.79700
O2328       O  0.98533084  0.18933259  0.27667642    -0.64400
O2329       O  0.93928633  0.07090472  0.31105431    -1.11000
C2330       C  0.91510136  0.17018381  0.37594481     1.07200
O2331       O  0.70500387  0.22533486  0.30821277    -0.77600
O2332       O  0.68722735  0.19505942  0.36294684    -0.65200
Ni2333     Ni  0.88816125  0.34474004  0.29698126     1.34900
C2334       C  0.01058632  0.15236087  0.36923668     0.85900
O2335       O  0.97711123  0.10157628  0.26173219    -0.78100
O2336       O  0.92201328  0.35539352  0.26394690    -0.88400
C2337       C  0.69403201  0.21878469  0.28366587     0.85500
O2338       O  0.84926269  0.03868532  0.28625616    -0.66600
O2339       O  0.94434818  0.20789268  0.36317158    -0.85900
C2340       C  0.86104925  0.08106336  0.27888674     0.86300
C2341       C  0.95706677  0.05780663  0.25274337     1.07900
H2342       H  0.91732026  0.15618727  0.31822768     0.39700
O2343       O  0.94517279  0.15335868  0.32191725    -1.08600
O2344       O  0.98725786  0.11688883  0.35381590    -0.65200
Ni2345     Ni  0.92480875  0.09779244  0.34118583     1.26300
O2346       O  0.90367457  0.11446488  0.27690681    -0.65400
O2347       O  0.90798079  0.12714015  0.37031234    -0.77700
C2348       C  0.86271210  0.00831869  0.35269217     0.85700
O2349       O  0.90453880  0.03965724  0.35884601    -0.64900
Ni2350     Ni  0.99120701  0.21509655  0.33626295     1.27400
Ni2351     Ni  0.96206065  0.12870420  0.29210223     1.26100
H2352       H  0.96579939  0.06553927  0.31440484     0.40200
N2353       N  0.68967193  0.42772700  0.08377402    -0.02300
C2354       C  0.71167198  0.44091882  0.10764588     0.00300
C2355       C  0.72776480  0.40873076  0.11342375    -0.22600
C2356       C  0.72274637  0.38120644  0.09138231    -0.22800
C2357       C  0.69954266  0.39362464  0.07352795     0.00200
H2358       H  0.75018843  0.41200374  0.12980548     0.14000
H2359       H  0.73769975  0.35757470  0.08826839     0.14000
N2360       N  0.94856932  0.52751967  0.06787778    -0.02300
C2361       C  0.98832405  0.56306857  0.05570349     0.00300
C2362       C  0.02380744  0.59049564  0.07402497    -0.22600
C2363       C  0.00266097  0.58043721  0.09777898    -0.22800
C2364       C  0.95611498  0.54508079  0.09317825     0.00200
H2365       H  0.05907507  0.62052853  0.07026703     0.14000
H2366       H  0.01817132  0.59999919  0.11596476     0.14000
N2367       N  0.85348412  0.34350626  0.05556125    -0.02300
C2368       C  0.85209960  0.33516333  0.02913690     0.00300
C2369       C  0.85626658  0.62770342  0.02306902    -0.22600
C2370       C  0.84954567  0.60416824  0.04552332    -0.22800
C2371       C  0.84460567  0.63277681  0.06468843     0.00200
H2372       H  0.85240449  0.61038225  0.00403164     0.14000
H2373       H  0.84449411  0.56791561  0.04740034     0.14000
C2374       C  0.89479782  0.38875934  0.06530110     0.04300
C2375       C  0.89882775  0.43540242  0.06204720    -0.11800
C2376       C  0.94334279  0.47881314  0.06648028     0.01800
C2377       C  0.98374253  0.47441174  0.07290577    -0.10400
C2378       C  0.98057861  0.42998008  0.07696001     0.04300
C2379       C  0.93588967  0.38753534  0.07397951    -0.09800
H2380       H  0.86795659  0.43781571  0.05603072     0.09900
H2381       H  0.01839946  0.50619646  0.07575944     0.07400
H2382       H  0.93390862  0.35297712  0.07720541     0.07300
N2383       N  0.87136370  0.63436360  0.91986931    -0.02300
C2384       C  0.89103630  0.64478460  0.94437796     0.00300
C2385       C  0.90825811  0.36030834  0.95038901    -0.22600
C2386       C  0.90358787  0.38132075  0.92856968    -0.22800
C2387       C  0.88149062  0.34463924  0.91013482     0.00200
H2388       H  0.92992124  0.38031500  0.96718368     0.14000
H2389       H  0.91770733  0.41965540  0.92596264     0.14000
N2390       N  0.79830343  0.45562820  0.90952936    -0.02300
C2391       C  0.84108810  0.46514785  0.89856060     0.00300
C2392       C  0.87519420  0.47688106  0.91770635    -0.22600
C2393       C  0.85093369  0.46546523  0.94082304    -0.22800
C2394       C  0.80236310  0.44412686  0.93457649     0.00200
H2395       H  0.91192145  0.48547600  0.91495630     0.14000
H2396       H  0.86599705  0.46189831  0.95884995     0.14000
C2397       C  0.79210571  0.49812264  0.90796568     0.04300
C2398       C  0.82985377  0.54403038  0.91734860    -0.11800
C2399       C  0.83244151  0.58731541  0.91089879     0.01800
C2400       C  0.79395522  0.58383147  0.89716210    -0.10400
C2401       C  0.75217761  0.54084999  0.89169489     0.04300
C2402       C  0.75181062  0.49653534  0.89574798    -0.09800
H2403       H  0.85938662  0.54674623  0.92823707     0.09900
H2404       H  0.79328646  0.61477884  0.89175315     0.07400
H2405       H  0.72153903  0.46215902  0.88966369     0.07300
N2406       N  0.71259883  0.54579477  0.88173764    -0.02300
C2407       C  0.69702869  0.53595116  0.85663012     0.00300
C2408       C  0.67917732  0.56590796  0.84952110    -0.22600
C2409       C  0.68284871  0.59470634  0.87067412    -0.22800
C2410       C  0.70341208  0.58200490  0.88993081     0.00200
H2411       H  0.99279857  0.56267452  0.83192948     0.14000
H2412       H  0.67043768  0.62088697  0.87216003     0.14000
O2413       O  0.91626118  0.60751335  0.97596810    -0.79700
O2414       O  0.78801613  0.35024553  0.02065579    -0.64400
O2415       O  0.67765985  0.34031936  0.98829531    -1.11000
C2416       C  0.71232368  0.60493843  0.91608051     1.07200
O2417       O  0.81992255  0.32771022  0.98783646    -0.77600
O2418       O  0.79532541  0.37927545  0.95804504    -0.65200
Ni2419     Ni  0.95142817  0.31051534  0.00709466     1.34900
C2420       C  0.77182150  0.39438271  0.94548449     0.85900
O2421       O  0.72873372  0.38408880  0.03261067    -0.78100
O2422       O  0.98216965  0.34705550  0.03875157    -0.88400
C2423       C  0.81928653  0.34048932  0.01149848     0.85500
O2424       O  0.95315520  0.58797084  0.02128998    -0.66600
O2425       O  0.75421225  0.63617361  0.92304971    -0.85900
C2426       C  0.98997671  0.59062136  0.03206175     0.86300
C2427       C  0.69182599  0.37516463  0.04634134     1.07900
H2428       H  0.71456666  0.59997194  0.98265298     0.39700
O2429       O  0.72752372  0.63269070  0.97655886    -1.08600
O2430       O  0.72642365  0.36678506  0.94120246    -0.65200
Ni2431     Ni  0.67910354  0.63780927  0.95834059     1.26300
O2432       O  0.69848068  0.62324214  0.02625452    -0.65400
O2433       O  0.67695899  0.59706565  0.92997517    -0.77700
C2434       C  0.92270279  0.62717330  0.95376689     0.85700
O2435       O  0.96257720  0.64285762  0.94231048    -0.64900
Ni2436     Ni  0.78354943  0.64867975  0.95697063     1.27400
Ni2437     Ni  0.73157523  0.34411485  0.00459371     1.26100
H2438       H  0.68474339  0.37249268  0.98348837     0.40200
N2439       N  0.88834386  0.54782438  0.73001083    -0.02300
C2440       C  0.85535962  0.53419717  0.71054069     0.00300
C2441       C  0.82808465  0.48389665  0.70909656    -0.22600
C2442       C  0.84203715  0.46649665  0.72898581    -0.22800
C2443       C  0.87929411  0.50588715  0.74133597     0.00200
H2444       H  0.79573664  0.46228966  0.69790475     0.14000
H2445       H  0.82289397  0.42966728  0.73575019     0.14000
N2446       N  0.72297326  0.64237992  0.75503763    -0.02300
C2447       C  0.72510851  0.30747327  0.78161152     0.00300
C2448       C  0.72528496  0.59879261  0.78858841    -0.22600
C2449       C  0.73026835  0.57730389  0.76635615    -0.22800
C2450       C  0.73121884  0.60578730  0.74655428     0.00200
H2451       H  0.73371309  0.25789567  0.80760365     0.14000
H2452       H  0.73794404  0.54759654  0.76499433     0.14000
N2453       N  0.96279940  0.39177915  0.72907475    -0.02300
C2454       C  0.92334331  0.39183948  0.73924515     0.00300
C2455       C  0.89361131  0.39039955  0.71969197    -0.22600
C2456       C  0.58420416  0.39574805  0.69675346    -0.22800
C2457       C  0.62737990  0.39927538  0.70300882     0.00200
H2458       H  0.86102083  0.39172528  0.72201015     0.14000
H2459       H  0.57473197  0.40476396  0.67837914     0.14000
C2460       C  0.68196486  0.31020246  0.74411305     0.04300
C2461       C  0.67928455  0.35352558  0.74176625    -0.11800
C2462       C  0.63475473  0.35024602  0.73553428     0.01800
C2463       C  0.92685369  0.30390946  0.73412577    -0.10400
C2464       C  0.92968720  0.59496330  0.73461378     0.04300
C2465       C  0.64084210  0.59878227  0.73824075    -0.09800
H2466       H  0.71083830  0.38869135  0.74476136     0.09900
H2467       H  0.89224693  0.30097142  0.73203524     0.07400
H2468       H  0.64316665  0.56595018  0.73704043     0.07300
O2469       O  0.67262262  0.47935840  0.82139658    -0.79700
O2470       O  0.79569729  0.38219267  0.78713031    -0.64400
O2471       O  0.91536981  0.46457059  0.81944166    -1.11000
C2472       C  0.87131265  0.35398093  0.88370088     1.07200
O2473       O  0.75318641  0.34682922  0.82248112    -0.77600
O2474       O  0.80957659  0.41796177  0.85926758    -0.65200
Ni2475     Ni  0.97080831  0.49490480  0.79738584     1.34900
C2476       C  0.84622103  0.44424017  0.87322741     0.85900
O2477       O  0.86093806  0.47513301  0.78260200    -0.78100
O2478       O  0.93803893  0.51042092  0.77088147    -0.88400
C2479       C  0.75828521  0.34978710  0.79780272     0.85500
O2480       O  0.95935507  0.43846951  0.77738277    -0.66600
O2481       O  0.83315179  0.35570729  0.88028048    -0.85900
C2482       C  0.92060590  0.40971493  0.76588629     0.86300
C2483       C  0.89473149  0.49984424  0.76705244     1.07900
H2484       H  0.85044835  0.34882877  0.81685807     0.39700
O2485       O  0.85051975  0.37580744  0.82631521    -1.08600
O2486       O  0.88583161  0.44461115  0.86910276    -0.65200
Ni2487     Ni  0.91049827  0.41611253  0.84298016     1.26300
O2488       O  0.87999148  0.40169637  0.77452378    -0.65400
O2489       O  0.90309087  0.36702135  0.86623482    -0.77700
C2490       C  0.67203596  0.48698960  0.84572801     0.85700
O2491       O  0.97061828  0.45717512  0.85901853    -0.64900
Ni2492     Ni  0.79695555  0.35377727  0.84989796     1.27400
Ni2493     Ni  0.85538959  0.42459462  0.80336037     1.26100
H2494       H  0.91346188  0.49031171  0.82906386     0.40200
N2495       N  0.82124742  0.43957049  0.56837697    -0.02300
C2496       C  0.82824130  0.48282795  0.57912014     0.00300
C2497       C  0.84035921  0.51632406  0.55965632    -0.22600
C2498       C  0.82784569  0.48992124  0.53666191    -0.22800
C2499       C  0.80801643  0.44145334  0.54325992     0.00200
H2500       H  0.84937993  0.55397374  0.56190651     0.14000
H2501       H  0.82234114  0.50329359  0.51856564     0.14000
N2502       N  0.00022169  0.50952962  0.56314321    -0.02300
C2503       C  0.70513003  0.51675874  0.57770703     0.00300
C2504       C  0.74579585  0.53554212  0.56297570    -0.22600
C2505       C  0.73307469  0.53690953  0.53810340    -0.22800
C2506       C  0.68528091  0.52369691  0.53862669     0.00200
H2507       H  0.78152137  0.55032866  0.56992673     0.14000
H2508       H  0.75819734  0.55521205  0.52251050     0.14000
N2509       N  0.90399160  0.34138988  0.58443022    -0.02300
C2510       C  0.93490503  0.32719146  0.57401317     0.00300
C2511       C  0.94168709  0.63123187  0.59095461    -0.22600
C2512       C  0.91638629  0.62842489  0.61279282    -0.22800
C2513       C  0.89434955  0.32211222  0.60855845     0.00200
H2514       H  0.96375244  0.61441880  0.58800044     0.14000
H2515       H  0.91249074  0.60690859  0.62963106     0.14000
C2516       C  0.86405706  0.43399437  0.57017211     0.04300
C2517       C  0.86074339  0.38882942  0.57637597    -0.11800
C2518       C  0.90292794  0.38506110  0.57804018     0.01800
C2519       C  0.94695195  0.42622228  0.57491067    -0.10400
C2520       C  0.95222456  0.47037415  0.56796192     0.04300
C2521       C  0.91092737  0.47428519  0.56513299    -0.09800
H2522       H  0.82613224  0.35735835  0.57966758     0.09900
H2523       H  0.97847956  0.42296998  0.57687565     0.07400
H2524       H  0.91595769  0.50904183  0.55943341     0.07300
O2525       O  0.66867533  0.42725260  0.66227894    -0.79700
O2526       O  0.81432347  0.61742979  0.61785935    -0.64400
O2527       O  0.76325234  0.50317131  0.65632347    -1.11000
C2528       C  0.74511352  0.59885187  0.72024835     1.07200
O2529       O  0.86478724  0.65754681  0.64993765    -0.77600
O2530       O  0.85353902  0.60135611  0.69020923    -0.65200
Ni2531     Ni  0.72313743  0.44169176  0.63941215     1.34900
C2532       C  0.83212483  0.56157672  0.70203694     0.85900
O2533       O  0.80852527  0.53017700  0.60816577    -0.78100
O2534       O  0.77552278  0.45065278  0.61625617    -0.88400
C2535       C  0.85540044  0.64826424  0.62563777     0.85500
O2536       O  0.69955266  0.46336685  0.61100213    -0.66600
O2537       O  0.78800936  0.62851868  0.71306461    -0.85900
C2538       C  0.70711990  0.50548438  0.60525303     0.86300
C2539       C  0.80345573  0.48796069  0.60306766     1.07900
H2540       H  0.74984359  0.59821689  0.65837402     0.39700
O2541       O  0.77161201  0.58749727  0.66397111    -1.08600
O2542       O  0.78772834  0.54092698  0.70597109    -0.65200
Ni2543     Ni  0.73791374  0.52907326  0.68232795     1.26300
O2544       O  0.72905717  0.54140925  0.62063554    -0.65400
O2545       O  0.71690200  0.55958928  0.70768658    -0.77700
C2546       C  0.66961522  0.43168786  0.68732681     0.85700
O2547       O  0.70309464  0.46825917  0.69903975    -0.64900
Ni2548     Ni  0.82489754  0.64036896  0.68095595     1.27400
Ni2549     Ni  0.78908709  0.55917189  0.63612528     1.26100
H2550       H  0.79005603  0.50116291  0.66304471     0.40200
N2551       N  0.89568385  0.55220506  0.40965054    -0.02300
C2552       C  0.89035179  0.50901924  0.39980677     0.00300
C2553       C  0.87891498  0.47662881  0.41978062    -0.22600
C2554       C  0.88936636  0.50391321  0.44242667    -0.22800
C2555       C  0.90861709  0.55187668  0.43500783     0.00200
H2556       H  0.87221188  0.43966270  0.41830772     0.14000
H2557       H  0.89515788  0.49192748  0.46092187     0.14000
N2558       N  0.71637927  0.48200086  0.41240496    -0.02300
C2559       C  0.67852385  0.47388187  0.39707315     0.00300
C2560       C  0.97044180  0.45288694  0.41131937    -0.22600
C2561       C  0.98235922  0.45266132  0.43648744    -0.22800
C2562       C  0.69715190  0.46766403  0.43681809     0.00200
H2563       H  0.93464751  0.43523851  0.40416360     0.14000
H2564       H  0.95674595  0.43351407  0.45174822     0.14000
N2565       N  0.81369404  0.65119193  0.39359375    -0.02300
C2566       C  0.78397701  0.66692650  0.40393848     0.00300
C2567       C  0.78099685  0.69951061  0.38767548    -0.22600
C2568       C  0.80733610  0.36930465  0.36620780    -0.22800
C2569       C  0.82604519  0.67247516  0.37009395     0.00200
H2570       H  0.76073438  0.38492458  0.39077096     0.14000
H2571       H  0.81348832  0.39230525  0.34972831     0.14000
C2572       C  0.85274635  0.55744810  0.40691316     0.04300
C2573       C  0.80568582  0.51682495  0.41083015    -0.11800
C2574       C  0.76447230  0.52119845  0.40812779     0.01800
C2575       C  0.76985627  0.56587159  0.40215386    -0.10400
C2576       C  0.81409223  0.60707290  0.39974071     0.04300
C2577       C  0.85619879  0.60305131  0.40156356    -0.09800
H2578       H  0.80062991  0.48168163  0.41581517     0.09900
H2579       H  0.73825672  0.56917682  0.40010598     0.07400
H2580       H  0.89095446  0.63479318  0.39906477     0.07300
O2581       O  0.66562062  0.54533768  0.49880984    -0.79700
O2582       O  0.69129808  0.39305594  0.44501441    -0.64400
O2583       O  0.71626186  0.64235075  0.48400274    -1.11000
C2584       C  0.96244287  0.34105767  0.54924807     1.07200
O2585       O  0.71702330  0.44808118  0.47743916    -0.77600
O2586       O  0.73513422  0.42943093  0.52579702    -0.65200
Ni2587     Ni  0.70651973  0.58200841  0.47003781     1.34900
C2588       C  0.75838922  0.40849883  0.53249077     0.85900
O2589       O  0.73611406  0.67810747  0.43430016    -0.78100
O2590       O  0.74834451  0.61536868  0.44097127    -0.88400
C2591       C  0.70627643  0.43629469  0.45340189     0.85500
O2592       O  0.98311453  0.56447131  0.45035290    -0.66600
O2593       O  0.97035532  0.37871411  0.53667029    -0.85900
C2594       C  0.95861734  0.58480590  0.44502250     0.86300
C2595       C  0.75487330  0.65211437  0.42805882     1.07900
H2596       H  0.96725616  0.66631844  0.48941783     0.39700
O2597       O  0.66769886  0.35126469  0.49327084    -1.08600
O2598       O  0.74154108  0.36264944  0.52926242    -0.65200
Ni2599     Ni  0.68148696  0.64428933  0.51373527     1.26300
O2600       O  0.97457209  0.63022265  0.44900430    -0.65400
O2601       O  0.97934466  0.64701500  0.54244718    -0.77700
C2602       C  0.67646287  0.55608250  0.52285704     0.85700
O2603       O  0.69131710  0.59897670  0.53185181    -0.64900
Ni2604     Ni  0.67758861  0.41167307  0.50694002     1.27400
Ni2605     Ni  0.70183198  0.34866570  0.46341320     1.26100
H2606       H  0.74995761  0.66092764  0.48802192     0.40200
N2607       N  0.97692851  0.67483981  0.22121152    -0.02300
C2608       C  0.97245611  0.71479875  0.22697173     0.00300
C2609       C  0.96437259  0.73277310  0.20466295    -0.22600
C2610       C  0.95979067  0.70062373  0.18482269    -0.22800
C2611       C  0.96355587  0.66303853  0.19586271     0.00200
H2612       H  0.95505904  0.76122940  0.20359567     0.14000
H2613       H  0.94478860  0.69931763  0.16582043     0.14000
N2614       N  0.81397647  0.42662691  0.24670587    -0.02300
C2615       C  0.82137754  0.47179663  0.24167076     0.00300
C2616       C  0.83002386  0.49924295  0.26439081    -0.22600
C2617       C  0.83156505  0.47132852  0.28383755    -0.22800
C2618       C  0.82562711  0.42847561  0.27211125     0.00200
H2619       H  0.84091017  0.53751616  0.26611755     0.14000
H2620       H  0.84557056  0.48510312  0.30322293     0.14000
N2621       N  0.72624112  0.58196368  0.23966178    -0.02300
C2622       C  0.72845214  0.56187058  0.26246542     0.00300
C2623       C  0.73559673  0.52310897  0.25616982    -0.22600
C2624       C  0.73349349  0.51733844  0.22947883    -0.22800
C2625       C  0.73028701  0.55544735  0.21944510     0.00200
H2626       H  0.73487328  0.49696588  0.26957859     0.14000
H2627       H  0.73681444  0.48965543  0.21832007     0.14000
C2628       C  0.68556138  0.67306060  0.22948617     0.04300
C2629       C  0.72969354  0.38309082  0.23218213    -0.11800
C2630       C  0.77223929  0.38266675  0.23754483     0.01800
C2631       C  0.77035059  0.67091816  0.23951964    -0.10400
C2632       C  0.72685064  0.62736751  0.23729926     0.04300
C2633       C  0.68455758  0.62841888  0.23205809    -0.09800
H2634       H  0.73070929  0.41751872  0.23074174     0.09900
H2635       H  0.80256880  0.66952856  0.24353589     0.07400
H2636       H  0.98451628  0.59464929  0.22986211     0.07300
O2637       O  0.93293481  0.53812300  0.13742317    -0.79700
O2638       O  0.80089662  0.59343017  0.19711564    -0.64400
O2639       O  0.84376213  0.51969125  0.15774377    -1.11000
C2640       C  0.83277990  0.61407298  0.09128549     1.08400
O2641       O  0.73652113  0.56479555  0.17252701    -0.77600
O2642       O  0.73140069  0.52112939  0.12437977    -0.65200
Ni2643     Ni  0.89701686  0.51391465  0.16934819     1.34900
C2644       C  0.74569908  0.49233874  0.11571500     0.85900
O2645       O  0.82182484  0.52467473  0.21039454    -0.78100
O2646       O  0.86364822  0.48637362  0.20158906    -0.88400
C2647       C  0.75652716  0.57592728  0.19515382     0.85500
O2648       O  0.93540855  0.57856780  0.18492126    -0.66600
O2649       O  0.79724085  0.61282529  0.10400078    -0.85900
C2650       C  0.92628230  0.61319094  0.18845239     0.86300
C2651       C  0.83573748  0.49481577  0.21607446     1.07900
H2652       H  0.84876579  0.62086076  0.14940417     0.39700
O2653       O  0.82447090  0.58701524  0.14798162    -1.08600
O2654       O  0.78970572  0.50413968  0.11493036    -0.65200
Ni2655     Ni  0.85003000  0.55536809  0.12726711     1.26300
O2656       O  0.88489896  0.60772020  0.18613107    -0.65400
O2657       O  0.85591537  0.59334078  0.09843507    -0.77700
C2658       C  0.91964691  0.53255143  0.11359698     0.85700
O2659       O  0.87829361  0.52407049  0.10735600    -0.64900
Ni2660     Ni  0.76765923  0.58747015  0.13813254     1.27400
Ni2661     Ni  0.82294364  0.55599644  0.17886231     1.26100
H2662       H  0.81720829  0.48707745  0.15564486     0.40200
O2663       O  0.85098274  0.66204531  0.32892219    -0.79700
O2664       O  0.98533088  0.52266588  0.27667642    -0.64400
O2665       O  0.93928632  0.40423804  0.31105431    -1.11000
C2666       C  0.91510130  0.50351712  0.37594479     1.07200
O2667       O  0.70500392  0.55866814  0.30821278    -0.77600
O2668       O  0.68722742  0.52839279  0.36294682    -0.65200
Ni2669     Ni  0.88816128  0.67807335  0.29698124     1.34900
C2670       C  0.01058627  0.48569423  0.36923670     0.85900
O2671       O  0.97711124  0.43490959  0.26173222    -0.78100
O2672       O  0.92201336  0.68872688  0.26394690    -0.88400
C2673       C  0.69403205  0.55211804  0.28366588     0.85500
O2674       O  0.84926269  0.37201860  0.28625616    -0.66600
O2675       O  0.94434809  0.54122600  0.36317154    -0.85900
C2676       C  0.86104925  0.41439666  0.27888674     0.86300
C2677       C  0.95706672  0.39113994  0.25274336     1.07900
H2678       H  0.91732021  0.48952061  0.31822767     0.39700
O2679       O  0.94517274  0.48669200  0.32191725    -1.08600
O2680       O  0.98725782  0.45022219  0.35381592    -0.65200
Ni2681     Ni  0.92480873  0.43112575  0.34118584     1.26300
O2682       O  0.90367458  0.44779815  0.27690679    -0.65400
O2683       O  0.90798081  0.46047348  0.37031235    -0.77700
C2684       C  0.86271211  0.34165204  0.35269217     0.85700
O2685       O  0.90453880  0.37299054  0.35884602    -0.64900
Ni2686     Ni  0.99120701  0.54842986  0.33626293     1.27400
Ni2687     Ni  0.96206063  0.46203749  0.29210224     1.26100
H2688       H  0.96579944  0.39887258  0.31440483     0.40200
N2689       N  0.68967176  0.76106023  0.08377404    -0.02300
C2690       C  0.71167185  0.77425213  0.10764590     0.00300
C2691       C  0.72776482  0.74206421  0.11342381    -0.22600
C2692       C  0.72274645  0.71453996  0.09138234    -0.22800
C2693       C  0.69954257  0.72695794  0.07352798     0.00200
H2694       H  0.75018849  0.74533728  0.12980553     0.14000
H2695       H  0.73769991  0.69090829  0.08826840     0.14000
N2696       N  0.94856929  0.86085297  0.06787778    -0.02300
C2697       C  0.98832402  0.89640183  0.05570349     0.00300
C2698       C  0.02380744  0.92382886  0.07402496    -0.22600
C2699       C  0.00266094  0.91377044  0.09777896    -0.22800
C2700       C  0.95611492  0.87841411  0.09317823     0.00200
H2701       H  0.05907508  0.95386175  0.07026703     0.14000
H2702       H  0.01817130  0.93333241  0.11596475     0.14000
N2703       N  0.85348407  0.67683964  0.05556128    -0.02300
C2704       C  0.85209960  0.66849676  0.02913692     0.00300
C2705       C  0.85626658  0.96103667  0.02306902    -0.22600
C2706       C  0.84954547  0.93750143  0.04552331    -0.22800
C2707       C  0.84460560  0.96611006  0.06468842     0.00200
H2708       H  0.85240455  0.94371551  0.00403165     0.14000
H2709       H  0.84449381  0.90124875  0.04740036     0.14000
C2710       C  0.89479785  0.72209269  0.06530112     0.04300
C2711       C  0.89882792  0.76873578  0.06204724    -0.11800
C2712       C  0.94334289  0.81214649  0.06648030     0.01800
C2713       C  0.98374261  0.80774510  0.07290578    -0.10400
C2714       C  0.98057862  0.76331340  0.07695999     0.04300
C2715       C  0.93588967  0.72086869  0.07397949    -0.09800
H2716       H  0.86795680  0.77114915  0.05603079     0.09900
H2717       H  0.01839956  0.83952977  0.07575946     0.07400
H2718       H  0.93390863  0.68631048  0.07720539     0.07300
N2719       N  0.87136367  0.96769690  0.91986934    -0.02300
C2720       C  0.89103634  0.97811796  0.94437798     0.00300
C2721       C  0.90825811  0.69364160  0.95038902    -0.22600
C2722       C  0.90358777  0.71465400  0.92856972    -0.22800
C2723       C  0.88149063  0.67797253  0.91013483     0.00200
H2724       H  0.92992133  0.71364829  0.96718366     0.14000
H2725       H  0.91770713  0.75298864  0.92596271     0.14000
N2726       N  0.79830334  0.78896146  0.90952935    -0.02300
C2727       C  0.84108802  0.79848110  0.89856061     0.00300
C2728       C  0.87519411  0.81021430  0.91770637    -0.22600
C2729       C  0.85093363  0.79879854  0.94082308    -0.22800
C2730       C  0.80236305  0.77746017  0.93457650     0.00200
H2731       H  0.91192135  0.81880930  0.91495632     0.14000
H2732       H  0.86599695  0.79523171  0.95885002     0.14000
C2733       C  0.79210570  0.83145595  0.90796569     0.04300
C2734       C  0.82985382  0.87736367  0.91734866    -0.11800
C2735       C  0.83244153  0.92064870  0.91089882     0.01800
C2736       C  0.79395521  0.91716476  0.89716209    -0.10400
C2737       C  0.75217756  0.87418331  0.89169491     0.04300
C2738       C  0.75181058  0.82986867  0.89574799    -0.09800
H2739       H  0.85938664  0.88007948  0.92823716     0.09900
H2740       H  0.79328647  0.94811213  0.89175309     0.07400
H2741       H  0.72153895  0.79549235  0.88966369     0.07300
N2742       N  0.71259874  0.87912805  0.88173766    -0.02300
C2743       C  0.69702856  0.86928445  0.85663013     0.00300
C2744       C  0.67917720  0.89924123  0.84952105    -0.22600
C2745       C  0.68284865  0.92803951  0.87067411    -0.22800
C2746       C  0.70341203  0.91533817  0.88993082     0.00200
H2747       H  0.99279840  0.89600764  0.83192953     0.14000
H2748       H  0.67043760  0.95422014  0.87216004     0.14000
O2749       O  0.91626125  0.94084667  0.97596808    -0.79700
O2750       O  0.78801606  0.68357883  0.02065579    -0.64400
O2751       O  0.67765984  0.67365275  0.98829532    -1.11000
C2752       C  0.71232362  0.93827170  0.91608051     1.07200
O2753       O  0.81992261  0.66104364  0.98783646    -0.77600
O2754       O  0.79532550  0.71260883  0.95804503    -0.65200
Ni2755     Ni  0.95142819  0.64384864  0.00709465     1.34900
C2756       C  0.77182155  0.72771605  0.94548448     0.85900
O2757       O  0.72873368  0.71742206  0.03261074    -0.78100
O2758       O  0.98216968  0.68038878  0.03875158    -0.88400
C2759       C  0.81928653  0.67382270  0.01149849     0.85500
O2760       O  0.95315509  0.92130404  0.02129000    -0.66600
O2761       O  0.75421222  0.96950682  0.92304972    -0.85900
C2762       C  0.98997662  0.92395461  0.03206176     0.86300
C2763       C  0.69182594  0.70849787  0.04634138     1.07900
H2764       H  0.71456670  0.93330523  0.98265299     0.39700
O2765       O  0.72752372  0.96602398  0.97655885    -1.08600
O2766       O  0.72642370  0.70011838  0.94120243    -0.65200
Ni2767     Ni  0.67910352  0.97114255  0.95834058     1.26300
O2768       O  0.69848071  0.95657543  0.02625450    -0.65400
O2769       O  0.67695893  0.93039898  0.92997515    -0.77700
C2770       C  0.92270290  0.96050673  0.95376690     0.85700
O2771       O  0.96257729  0.97619108  0.94231049    -0.64900
Ni2772     Ni  0.78354942  0.98201304  0.95697064     1.27400
Ni2773     Ni  0.73157521  0.67744824  0.00459372     1.26100
H2774       H  0.68474347  0.70582635  0.98348838     0.40200
N2775       N  0.88834389  0.88115766  0.73001080    -0.02300
C2776       C  0.85535963  0.86753051  0.71054070     0.00300
C2777       C  0.82808467  0.81723003  0.70909664    -0.22600
C2778       C  0.84203703  0.79982990  0.72898585    -0.22800
C2779       C  0.87929407  0.83922039  0.74133595     0.00200
H2780       H  0.79573660  0.79562307  0.69790486     0.14000
H2781       H  0.82289373  0.76300050  0.73575020     0.14000
N2782       N  0.72297331  0.97571329  0.75503764    -0.02300
C2783       C  0.72510841  0.64080656  0.78161152     0.00300
C2784       C  0.72528516  0.93212603  0.78858842    -0.22600
C2785       C  0.73026858  0.91063728  0.76635616    -0.22800
C2786       C  0.73121891  0.93912068  0.74655429     0.00200
H2787       H  0.73371281  0.59122881  0.80760364     0.14000
H2788       H  0.73794427  0.88092992  0.76499431     0.14000
N2789       N  0.96279952  0.72511254  0.72907475    -0.02300
C2790       C  0.92334345  0.72517295  0.73924514     0.00300
C2791       C  0.89361151  0.72373306  0.71969196    -0.22600
C2792       C  0.58420414  0.72908136  0.69675347    -0.22800
C2793       C  0.62737990  0.73260876  0.70300881     0.00200
H2794       H  0.86102105  0.72505885  0.72201015     0.14000
H2795       H  0.57473176  0.73809724  0.67837919     0.14000
C2796       C  0.68196487  0.64353584  0.74411304     0.04300
C2797       C  0.67928460  0.68685903  0.74176627    -0.11800
C2798       C  0.63475474  0.68357942  0.73553426     0.01800
C2799       C  0.92685388  0.63724284  0.73412579    -0.10400
C2800       C  0.92968714  0.92829661  0.73461378     0.04300
C2801       C  0.64084217  0.93211560  0.73824076    -0.09800
H2802       H  0.71083830  0.72202484  0.74476138     0.09900
H2803       H  0.89224711  0.63430481  0.73203528     0.07400
H2804       H  0.64316677  0.89928356  0.73704045     0.07300
O2805       O  0.67262251  0.81269182  0.82139659    -0.79700
O2806       O  0.79569727  0.71552589  0.78713029    -0.64400
O2807       O  0.91536973  0.79790389  0.81944167    -1.11000
C2808       C  0.87131267  0.68731426  0.88370090     1.07200
O2809       O  0.75318640  0.68016250  0.82248112    -0.77600
O2810       O  0.80957652  0.75129514  0.85926758    -0.65200
Ni2811     Ni  0.97080823  0.82823812  0.79738585     1.34900
C2812       C  0.84622096  0.77757349  0.87322741     0.85900
O2813       O  0.86093797  0.80846626  0.78260197    -0.78100
O2814       O  0.93803885  0.84375417  0.77088147    -0.88400
C2815       C  0.75828519  0.68312034  0.79780272     0.85500
O2816       O  0.95935504  0.77180279  0.77738284    -0.66600
O2817       O  0.83315183  0.68904069  0.88028053    -0.85900
C2818       C  0.92060591  0.74304825  0.76588631     0.86300
C2819       C  0.89473142  0.83317748  0.76705242     1.07900
H2820       H  0.85044813  0.68216210  0.81685812     0.39700
O2821       O  0.85051967  0.70914074  0.82631523    -1.08600
O2822       O  0.88583153  0.77794440  0.86910277    -0.65200
Ni2823     Ni  0.91049824  0.74944585  0.84298016     1.26300
O2824       O  0.87999148  0.73502967  0.77452378    -0.65400
O2825       O  0.90309087  0.70035464  0.86623481    -0.77700
C2826       C  0.67203584  0.82032295  0.84572803     0.85700
O2827       O  0.97061833  0.79050839  0.85901850    -0.64900
Ni2828     Ni  0.79695552  0.68711065  0.84989800     1.27400
Ni2829     Ni  0.85538952  0.75792791  0.80336037     1.26100
H2830       H  0.91346176  0.82364516  0.82906392     0.40200
N2831       N  0.82124745  0.77290383  0.56837698    -0.02300
C2832       C  0.82824134  0.81616129  0.57912015     0.00300
C2833       C  0.84035923  0.84965736  0.55965631    -0.22600
C2834       C  0.82784559  0.82325453  0.53666190    -0.22800
C2835       C  0.80801640  0.77478665  0.54325993     0.00200
H2836       H  0.84938000  0.88730706  0.56190652     0.14000
H2837       H  0.82234088  0.83662683  0.51856567     0.14000
N2838       N  0.00022171  0.84286296  0.56314320    -0.02300
C2839       C  0.70513001  0.85009212  0.57770702     0.00300
C2840       C  0.74579580  0.86887535  0.56297569    -0.22600
C2841       C  0.73307476  0.87024284  0.53810336    -0.22800
C2842       C  0.68528096  0.85703027  0.53862666     0.00200
H2843       H  0.78152129  0.88366184  0.56992677     0.14000
H2844       H  0.75819750  0.88854539  0.52251051     0.14000
N2845       N  0.90399163  0.67472323  0.58443022    -0.02300
C2846       C  0.93490506  0.66052484  0.57401317     0.00300
C2847       C  0.94168721  0.96456542  0.59095464    -0.22600
C2848       C  0.91638646  0.96175844  0.61279287    -0.22800
C2849       C  0.89434953  0.65544545  0.60855843     0.00200
H2850       H  0.96375264  0.94775245  0.58800046     0.14000
H2851       H  0.91249095  0.94024218  0.62963112     0.14000
C2852       C  0.86405710  0.76732781  0.57017210     0.04300
C2853       C  0.86074340  0.72216284  0.57637599    -0.11800
C2854       C  0.90292793  0.71839445  0.57804020     0.01800
C2855       C  0.94695191  0.75955568  0.57491066    -0.10400
C2856       C  0.95222455  0.80370757  0.56796192     0.04300
C2857       C  0.91092742  0.80761870  0.56513297    -0.09800
H2858       H  0.82613222  0.69069185  0.57966759     0.09900
H2859       H  0.97847956  0.75630343  0.57687561     0.07400
H2860       H  0.91595779  0.84237537  0.55943336     0.07300
O2861       O  0.66867535  0.76058610  0.66227894    -0.79700
O2862       O  0.81432357  0.95076309  0.61785936    -0.64400
O2863       O  0.76325236  0.83650465  0.65632349    -1.11000
C2864       C  0.74511345  0.93218521  0.72024834     1.07200
O2865       O  0.86478725  0.99088025  0.64993767    -0.77600
O2866       O  0.85353903  0.93468951  0.69020926    -0.65200
Ni2867     Ni  0.72313742  0.77502520  0.63941215     1.34900
C2868       C  0.83212481  0.89491006  0.70203693     0.85900
O2869       O  0.80852545  0.86351043  0.60816578    -0.78100
O2870       O  0.77552273  0.78398620  0.61625615    -0.88400
C2871       C  0.85540049  0.98159760  0.62563779     0.85500
O2872       O  0.69955263  0.79670024  0.61100211    -0.66600
O2873       O  0.78800928  0.96185201  0.71306458    -0.85900
C2874       C  0.70711988  0.83881775  0.60525303     0.86300
C2875       C  0.80345579  0.82129409  0.60306766     1.07900
H2876       H  0.74984357  0.93155013  0.65837397     0.39700
O2877       O  0.77161200  0.92083056  0.66397109    -1.08600
O2878       O  0.78772833  0.87426034  0.70597107    -0.65200
Ni2879     Ni  0.73791370  0.86240659  0.68232795     1.26300
O2880       O  0.72905725  0.87474263  0.62063553    -0.65400
O2881       O  0.71690191  0.89292262  0.70768658    -0.77700
C2882       C  0.66961524  0.76502126  0.68732681     0.85700
O2883       O  0.70309465  0.80159253  0.69903977    -0.64900
Ni2884     Ni  0.82489746  0.97370228  0.68095595     1.27400
Ni2885     Ni  0.78908716  0.89250521  0.63612529     1.26100
H2886       H  0.79005602  0.83449619  0.66304473     0.40200
N2887       N  0.89568376  0.88553834  0.40965054    -0.02300
C2888       C  0.89035175  0.84235254  0.39980678     0.00300
C2889       C  0.87891491  0.80996208  0.41978064    -0.22600
C2890       C  0.88936635  0.83724652  0.44242669    -0.22800
C2891       C  0.90861702  0.88520999  0.43500784     0.00200
H2892       H  0.87221186  0.77299599  0.41830774     0.14000
H2893       H  0.89515804  0.82526089  0.46092188     0.14000
N2894       N  0.71637922  0.81533417  0.41240495    -0.02300
C2895       C  0.67852381  0.80721519  0.39707313     0.00300
C2896       C  0.97044172  0.78622038  0.41131936    -0.22600
C2897       C  0.98235920  0.78599480  0.43648744    -0.22800
C2898       C  0.69715187  0.80099739  0.43681809     0.00200
H2899       H  0.93464744  0.76857185  0.40416358     0.14000
H2900       H  0.95674592  0.76684753  0.45174822     0.14000
N2901       N  0.81369404  0.98452523  0.39359378    -0.02300
C2902       C  0.78397689  0.00025973  0.40393848     0.00300
C2903       C  0.78099670  0.03284386  0.38767548    -0.22600
C2904       C  0.80733604  0.70263789  0.36620774    -0.22800
C2905       C  0.82604532  0.00580859  0.37009402     0.00200
H2906       H  0.76073462  0.71825804  0.39077099     0.14000
H2907       H  0.81348820  0.72563850  0.34972825     0.14000
C2908       C  0.85274626  0.89078135  0.40691315     0.04300
C2909       C  0.80568573  0.85015826  0.41083014    -0.11800
C2910       C  0.76447226  0.85453176  0.40812781     0.01800
C2911       C  0.76985631  0.89920489  0.40215387    -0.10400
C2912       C  0.81409219  0.94040615  0.39974071     0.04300
C2913       C  0.85619867  0.93638451  0.40156356    -0.09800
H2914       H  0.80062976  0.81501494  0.41581514     0.09900
H2915       H  0.73825675  0.90251010  0.40010596     0.07400
H2916       H  0.89095434  0.96812635  0.39906477     0.07300
O2917       O  0.66562057  0.87867110  0.49880985    -0.79700
O2918       O  0.69129815  0.72638933  0.44501440    -0.64400
O2919       O  0.71626185  0.97568406  0.48400275    -1.11000
C2920       C  0.96244294  0.67439110  0.54924808     1.07200
O2921       O  0.71702338  0.78141451  0.47743916    -0.77600
O2922       O  0.73513422  0.76276420  0.52579702    -0.65200
Ni2923     Ni  0.70651969  0.91534169  0.47003782     1.34900
C2924       C  0.75838924  0.74183212  0.53249078     0.85900
O2925       O  0.73611384  0.01144058  0.43430012    -0.78100
O2926       O  0.74834452  0.94870195  0.44097130    -0.88400
C2927       C  0.70627645  0.76962804  0.45340189     0.85500
O2928       O  0.98311446  0.89780456  0.45035288    -0.66600
O2929       O  0.97035525  0.71204747  0.53667028    -0.85900
C2930       C  0.95861728  0.91813918  0.44502249     0.86300
C2931       C  0.75487318  0.98544756  0.42805881     1.07900
H2932       H  0.96725591  0.99965173  0.48941780     0.39700
O2933       O  0.66769889  0.68459802  0.49327084    -1.08600
O2934       O  0.74154114  0.69598275  0.52926242    -0.65200
Ni2935     Ni  0.68148687  0.97762264  0.51373528     1.26300
O2936       O  0.97457205  0.96355593  0.44900430    -0.65400
O2937       O  0.97934456  0.98034830  0.54244716    -0.77700
C2938       C  0.67646295  0.88941593  0.52285704     0.85700
O2939       O  0.69131714  0.93231009  0.53185183    -0.64900
Ni2940     Ni  0.67758867  0.74500639  0.50694001     1.27400
Ni2941     Ni  0.70183205  0.68199909  0.46341320     1.26100
H2942       H  0.74995723  0.99426075  0.48802190     0.40200
N2943       N  0.97692849  0.00817314  0.22121153    -0.02300
C2944       C  0.97245606  0.04813209  0.22697175     0.00300
C2945       C  0.96437249  0.06610657  0.20466299    -0.22600
C2946       C  0.95979059  0.03395712  0.18482272    -0.22800
C2947       C  0.96355583  0.99637187  0.19586272     0.00200
H2948       H  0.95505899  0.09456289  0.20359576     0.14000
H2949       H  0.94478844  0.03265094  0.16582048     0.14000
N2950       N  0.81397642  0.75996030  0.24670587    -0.02300
C2951       C  0.82137754  0.80513002  0.24167076     0.00300
C2952       C  0.83002391  0.83257642  0.26439079    -0.22600
C2953       C  0.83156504  0.80466193  0.28383754    -0.22800
C2954       C  0.82562711  0.76180902  0.27211126     0.00200
H2955       H  0.84091032  0.87084968  0.26611752     0.14000
H2956       H  0.84557055  0.81843651  0.30322292     0.14000
N2957       N  0.72624098  0.91529695  0.23966175    -0.02300
C2958       C  0.72845203  0.89520396  0.26246541     0.00300
C2959       C  0.73559685  0.85644251  0.25616984    -0.22600
C2960       C  0.73349362  0.85067188  0.22947886    -0.22800
C2961       C  0.73028702  0.88878068  0.21944510     0.00200
H2962       H  0.73487347  0.83029949  0.26957863     0.14000
H2963       H  0.73681459  0.82298884  0.21832014     0.14000
C2964       C  0.68556135  0.00639385  0.22948614     0.04300
C2965       C  0.72969354  0.71642416  0.23218201    -0.11800
C2966       C  0.77223924  0.71600013  0.23754481     0.01800
C2967       C  0.77035060  0.00425143  0.23951963    -0.10400
C2968       C  0.72685055  0.96070078  0.23729922     0.04300
C2969       C  0.68455744  0.96175209  0.23205807    -0.09800
H2970       H  0.73070931  0.75085206  0.23074159     0.09900
H2971       H  0.80256879  0.00286175  0.24353590     0.07400
H2972       H  0.98451613  0.92798250  0.22986206     0.07300
O2973       O  0.93293478  0.87145624  0.13742316    -0.79700
O2974       O  0.80089665  0.92676348  0.19711565    -0.64400
O2975       O  0.84376209  0.85302452  0.15774377    -1.11000
C2976       C  0.83277991  0.94740627  0.09128550     1.08400
O2977       O  0.73652117  0.89812885  0.17252701    -0.77600
O2978       O  0.73140067  0.85446270  0.12437978    -0.65200
Ni2979     Ni  0.89701683  0.84724793  0.16934820     1.34900
C2980       C  0.74569901  0.82567203  0.11571497     0.85900
O2981       O  0.82182491  0.85800808  0.21039454    -0.78100
O2982       O  0.86364817  0.81970685  0.20158905    -0.88400
C2983       C  0.75652720  0.90926063  0.19515383     0.85500
O2984       O  0.93540847  0.91190114  0.18492124    -0.66600
O2985       O  0.79724087  0.94615854  0.10400079    -0.85900
C2986       C  0.92628225  0.94652431  0.18845238     0.86300
C2987       C  0.83573748  0.82814908  0.21607446     1.07900
H2988       H  0.84876586  0.95419406  0.14940414     0.39700
O2989       O  0.82447089  0.92034847  0.14798162    -1.08600
O2990       O  0.78970563  0.83747292  0.11493034    -0.65200
Ni2991     Ni  0.85002994  0.88870132  0.12726710     1.26300
O2992       O  0.88489891  0.94105357  0.18613106    -0.65400
O2993       O  0.85591539  0.92667405  0.09843506    -0.77700
C2994       C  0.91964688  0.86588472  0.11359697     0.85700
O2995       O  0.87829354  0.85740372  0.10735601    -0.64900
Ni2996     Ni  0.76765927  0.92080343  0.13813255     1.27400
Ni2997     Ni  0.82294364  0.88932974  0.17886231     1.26100
H2998       H  0.81720813  0.82041064  0.15564488     0.40200
O2999       O  0.85098271  0.99537875  0.32892223    -0.79700
O3000       O  0.98533090  0.85599925  0.27667643    -0.64400
O3001       O  0.93928628  0.73757134  0.31105432    -1.11000
C3002       C  0.91510136  0.83685048  0.37594481     1.07200
O3003       O  0.70500378  0.89200150  0.30821277    -0.77600
O3004       O  0.68722726  0.86172607  0.36294681    -0.65200
Ni3005     Ni  0.88816124  0.01140672  0.29698127     1.34900
C3006       C  0.01058629  0.81902753  0.36923668     0.85900
O3007       O  0.97711121  0.76824297  0.26173220    -0.78100
O3008       O  0.92201336  0.02206019  0.26394693    -0.88400
C3009       C  0.69403191  0.88545135  0.28366587     0.85500
O3010       O  0.84926274  0.70535203  0.28625620    -0.66600
O3011       O  0.94434815  0.87455939  0.36317157    -0.85900
C3012       C  0.86104927  0.74773007  0.27888675     0.86300
C3013       C  0.95706674  0.72447334  0.25274334     1.07900
H3014       H  0.91732026  0.82285394  0.31822767     0.39700
O3015       O  0.94517279  0.82002533  0.32191726    -1.08600
O3016       O  0.98725778  0.78355544  0.35381593    -0.65200
Ni3017     Ni  0.92480873  0.76445907  0.34118584     1.26300
O3018       O  0.90367461  0.78113156  0.27690680    -0.65400
O3019       O  0.90798085  0.79380684  0.37031235    -0.77700
C3020       C  0.86271204  0.67498529  0.35269214     0.85700
O3021       O  0.90453871  0.70632384  0.35884603    -0.64900
Ni3022     Ni  0.99120703  0.88176323  0.33626294     1.27400
Ni3023     Ni  0.96206066  0.79537084  0.29210225     1.26100
H3024       H  0.96579958  0.73220582  0.31440487     0.40200
loop_ 
_geom_bond_atom_site_label_1 
_geom_bond_atom_site_label_2 
_geom_bond_distance 
_geom_bond_site_symmetry_2 
_ccdc_geom_bond_type 
N1            C5   1.355       .  A
N1            C2   1.368       .  A
N1         C2042   1.449   1_455  S
C2            C3   1.391       .  A
C2          C292   1.493       .  S
C3            C4   1.365       .  A
C3            H6   1.083       .  S
C4            C5   1.371       .  A
C4            H7   1.077       .  S
C5           C75   1.469       .  S
N8           C12   1.370       .  A
N8            C9   1.376       .  A
N8           C24   1.465       .  S
C9           C10   1.393       .  A
C9           C74   1.500       .  S
C10          C11   1.353       .  A
C10          H13   1.081       .  S
C11          C12   1.375       .  A
C11          H14   1.083       .  S
C12         C306   1.469       .  S
N15          C16   1.368       .  A
N15         C691   1.374   1_545  A
N15          C22   1.470       .  S
C16         C689   1.387   1_545  A
C16          C71   1.473       .  S
C17          C18   1.346       .  A
C17         C352   1.387       .  A
C17          H20   1.081       .  S
C18          C19   1.374       .  A
C18          H21   1.083       .  S
C19         N351   1.374       .  A
C19         C288   1.472       .  S
C22          C23   1.431       .  A
C22          C27   1.419       .  A
C23          C24   1.428       .  A
C23          H28   1.082       .  S
C24          C25   1.417       .  A
C25          C26   1.380       .  A
C25          H29   1.079       .  S
C26        N1009   1.449       .  S
C26          C27   1.408       .  A
C27          H30   1.081       .  S
N31          C32   1.370       .  A
N31         C371   1.361       .  A
N31          C47   1.459       .  S
C32         C369   1.386       .  A
C32          C82   1.473       .  S
C33          C34   1.365       .  A
C33         C704   1.386   1_545  A
C33          H36   1.084       .  S
C34          C35   1.371       .  A
C34          H37   1.077       .  S
C35         N703   1.361   1_545  A
C35         C120   1.470       .  S
N38          C42   1.370       .  A
N38          C39   1.371       .  A
N38          C45   1.457       .  S
C39          C40   1.382       .  A
C39         C124   1.482       .  S
C40          C41   1.365       .  A
C40          H43   1.082       .  S
C41          C42   1.400       .  A
C41          H44   1.083       .  S
C42          C68   1.506       .  S
C45          C46   1.431       .  A
C45          C50   1.425       .  A
C46          C47   1.381       .  A
C46          H51   1.074       .  S
C47          C48   1.387       .  A
C48          C49   1.385       .  A
C48          H52   1.036       .  S
C49          N54   1.458       .  S
C49          C50   1.418       .  A
C50          H53   1.082       .  S
N54          C58   1.369       .  A
N54          C55   1.357       .  A
C55          C56   1.387       .  A
C55         C138   1.445       .  S
C56          C57   1.361       .  A
C56        H2075   1.082   1_455  S
C57          C58   1.370       .  A
C57          H60   1.082       .  S
C58          C64   1.465       .  S
H59        C1064   1.082       .  S
O61          C82   1.278       .  A
O61        Ni403   1.949   1_556  S
O62          C71   1.269       .  A
O62         Ni85   1.922       .  S
O63         Ni85   1.884   1_556  S
O63       Ni2083   1.926   1_446  S
O63        Ni751   1.892   1_545  S
O63          H86   0.966       .  S
C64          O81   1.253       .  A
C64          O73   1.264       .  A
O65          C71   1.269   1_566  A
O65        Ni756   1.893       .  S
O66          C68   1.266       .  A
O66        Ni756   1.864   1_545  S
Ni67         O70   1.935   1_565  S
Ni67        O733   1.949   1_554  S
Ni67        O744   1.958       .  S
Ni67       O1071   1.926   1_564  S
C68          O78   1.297       .  A
O69          C75   1.281       .  A
O69         Ni85   1.913       .  S
O70        C1083   1.279       .  A
O72          C74   1.277       .  A
O72        Ni403   1.958       .  S
O73         Ni84   1.924       .  S
C74        O1088   1.266       .  A
C75        O2086   1.279   1_455  A
H76          O77   0.966       .  S
O77         Ni79   1.903       .  S
O77         Ni84   1.895       .  S
O77        Ni421   1.944   1_556  S
O78        Ni751   2.021   1_545  S
Ni79         O81   1.890       .  S
Ni79        O414   2.021       .  S
Ni79       O2099   1.889   1_455  S
Ni79        O399   1.892       .  S
O80        C2090   1.266   1_455  A
O80        Ni421   1.895       .  S
C82          O83   1.267       .  A
O83       Ni1087   1.889       .  S
Ni84        O401   1.893       .  S
Ni84        O402   1.864       .  S
Ni85        O752   1.895   1_545  S
Ni85        O749   1.944   1_544  S
N87          C91   1.358       .  A
N87          C88   1.363       .  A
N87         C112   1.442       .  S
C88          C89   1.387       .  A
C88         C180   1.473       .  S
C89          C90   1.355       .  A
C89          H92   1.081       .  S
C90          C91   1.374       .  A
C90          H93   1.081       .  S
C91         C131   1.465       .  S
N94          C98   1.366       .  A
N94         C431   1.368       .  A
N94         C444   1.457       .  S
C95         N766   1.368       .  A
C95         C768   1.390       .  A
C95         C127   1.471   1_565  S
C96          C97   1.355       .  A
C96         C431   1.390       .  A
C96         H435   1.080       .  S
C97          C98   1.368       .  A
C97         H100   1.083       .  S
C98         C176   1.457       .  S
H99         C768   1.080       .  S
N101        C102   1.365       .  A
N101       C1113   1.372       .  A
N101       C1118   1.454       .  S
C102        C103   1.379       .  A
C102        C130   1.479       .  S
C103       C1112   1.364       .  A
C103        H106   1.074       .  S
C104        C105   1.379       .  A
C104       C2119   1.364       .  A
C104        H107   1.082       .  S
C105       N2117   1.372       .  A
C105        C194   1.480   1_655  S
C108        N766   1.457       .  S
C108        C109   1.424   1_565  A
C108        C785   1.408   1_455  A
C109        C110   1.424   1_455  A
C109        H114   1.082       .  S
C110       N2117   1.454       .  S
C110       C2127   1.411   1_545  A
C111       C1118   1.411   1_565  A
C111        C784   1.385       .  A
C111        H115   1.077       .  S
C112        C447   1.385       .  A
C112       C1121   1.390       .  A
C113        C444   1.408   1_655  A
C113       C2128   1.390       .  A
C113        H116   1.077       .  S
O117        C138   1.264       .  A
O117      Ni2139   1.913   1_455  S
O118        C127   1.264       .  A
O118       Ni141   1.901       .  S
O119       Ni123   1.923       .  S
O119       Ni141   1.890       .  S
O119       Ni135   1.924       .  S
O119        H142   0.966       .  S
C120        O137   1.263       .  A
C120        O129   1.270       .  A
O121        C127   1.273       .  A
O121       Ni140   1.933       .  S
O122        C124   1.270       .  A
O122       Ni140   1.910       .  S
Ni123       O126   1.946       .  S
Ni123       O128   1.902       .  S
Ni123      O1125   1.913       .  S
C124        O134   1.283       .  A
O125        C131   1.266       .  A
O125       Ni141   1.881       .  S
O126        C131   1.278       .  A
O128        C130   1.264       .  A
O129       Ni140   1.939       .  S
C130        O136   1.277       .  A
H132        O133   0.967       .  S
O133       Ni141   1.913       .  S
O133       Ni135   1.905       .  S
O133       Ni140   1.929       .  S
O134       Ni135   1.957       .  S
Ni135       O139   1.898       .  S
Ni135       O137   1.906       .  S
O136       Ni141   1.948       .  S
C138       O2155   1.258   1_455  A
O139       C1146   1.258       .  A
N143        C147   1.373       .  A
N143        C144   1.370       .  A
N143        C164   1.476       .  S
C144        C145   1.385       .  A
C144        C187   1.501       .  S
C145        C146   1.366       .  A
C145        H148   1.080       .  S
C146        C147   1.391       .  A
C146        H149   1.083       .  S
C147        C236   1.512       .  S
N150       C1162   1.371       .  A
N150       C1159   1.364       .  A
N150        C168   1.450       .  S
C151       N2166   1.364       .  A
C151        C152   1.366       .  A
C151        C186   1.476       .  S
C152        C153   1.352       .  A
C152        H155   1.066       .  S
C153        C154   1.380       .  A
C153        H156   1.084       .  S
C154       N2166   1.371       .  A
C154        C250   1.459       .  S
N157        C161   1.359   1_545  A
N157        C158   1.373   1_545  A
N157        C166   1.446       .  S
C158        C831   1.384       .  A
C158        C232   1.485   1_565  S
C159        C160   1.353       .  A
C159        C494   1.384       .  A
C159        H162   1.083       .  S
C160        C497   1.376       .  A
C160        H163   1.083       .  S
C161        C832   1.376       .  A
C161        C855   1.444       .  S
C164        C165   1.425       .  A
C164        C169   1.442       .  A
C165        C166   1.423       .  A
C165        H170   1.082       .  S
C166        C167   1.384       .  A
C167        C168   1.379       .  A
C167        H171   1.075       .  S
C168        C169   1.403       .  A
C169        H172   1.079       .  S
O173        C194   1.285       .  A
O173       Ni179   1.958       .  S
O174        C183   1.255       .  A
O174       Ni197   1.882       .  S
O175       Ni179   1.910       .  S
O175       Ni197   1.881       .  S
O175       Ni191   1.915       .  S
O175        H198   0.964       .  S
C176        O193   1.279       .  A
C176        O185   1.285       .  A
O177        C183   1.276       .  A
O177       Ni196   1.943       .  S
O178        C180   1.268       .  A
O178       Ni196   1.941       .  S
Ni179       O182   1.954       .  S
Ni179       O184   1.942       .  S
C180        O190   1.260       .  A
O181        C187   1.281       .  A
O181       Ni197   1.933       .  S
O182        C187   1.282       .  A
C183        C497   1.444       .  S
O184        C186   1.274       .  A
O185       Ni196   1.949       .  S
C186        O192   1.256       .  A
H188        O189   0.966       .  S
O189       Ni197   1.883       .  S
O189       Ni191   1.892       .  S
O189       Ni196   1.902       .  S
O190       Ni191   1.900       .  S
Ni191       O195   1.908       .  S
Ni191       O193   1.901       .  S
O192       Ni197   1.902       .  S
C194        O195   1.267       .  A
N199        C203   1.372       .  A
N199        C200   1.370       .  A
N199        C220   1.479       .  S
C200        C201   1.384       .  A
C200        C314   1.501       .  S
C201        C202   1.366       .  A
C201        H204   1.080       .  S
C202        C203   1.390       .  A
C202        H205   1.083       .  S
C203        C242   1.508       .  S
N206        C210   1.374       .  A
N206        C207   1.368       .  A
N206        C222   1.447       .  S
C207       C2224   1.370   1_455  A
C207       C2334   1.492       .  S
C208        C209   1.352       .  A
C208       C1215   1.370       .  A
C208        H211   1.066       .  S
C209       C1218   1.377       .  A
C209        H212   1.084       .  S
C210       C2225   1.377   1_455  A
C210        C239   1.463       .  S
N213        C217   1.354       .  A
N213        C214   1.371       .  A
N213        C224   1.447       .  S
C214        C215   1.386       .  A
C214        C243   1.481       .  S
C215        C552   1.354       .  A
C215        H554   1.083       .  S
C216        C887   1.354       .  A
C216        C889   1.376       .  A
C216        H219   1.083       .  S
C217        C552   1.376       .  A
C217        C668   1.440       .  S
H218        C887   1.083       .  S
C220        C221   1.440       .  A
C220        C225   1.426       .  A
C221        C222   1.408       .  A
C221        H226   1.080       .  S
C222        C223   1.380       .  A
C223        C224   1.384       .  A
C223        H227   1.078       .  S
C224        C225   1.426       .  A
C225        H228   1.082       .  S
O229        C250   1.274   1_655  A
O229       Ni235   1.948   1_655  S
O230        C239   1.267       .  A
O230       Ni253   1.881       .  S
O231       Ni235   1.893       .  S
O231       Ni247   1.894       .  S
O231       Ni589   1.890       .  S
O231        H254   0.966       .  S
C232        O241   1.282       .  A
C232        O921   1.267   1_545  A
O233        C239   1.277       .  A
O233       Ni252   1.958       .  S
O234        C236   1.275       .  A
O234       Ni252   1.915       .  S
Ni235       O238   1.945       .  S
Ni235      O2256   1.917   1_455  S
C236        O246   1.279       .  A
O237        C243   1.268       .  A
O237       Ni589   1.878       .  S
O238        C243   1.279       .  A
O240        C242   1.275       .  A
O240      Ni1243   1.917       .  S
O241      Ni1260   1.952       .  S
C242        O248   1.275       .  A
H244       O1589   0.966       .  S
O245       Ni253   1.893       .  S
O245       Ni252   1.888       .  S
O245       Ni919   1.891   1_545  S
O245       H2932   0.966   1_445  S
O246       Ni919   1.971   1_545  S
Ni247       O251   1.886       .  S
Ni247       O582   1.971       .  S
Ni247      O2265   1.874   1_455  S
Ni247       O581   1.891       .  S
O248      Ni1597   1.960       .  S
O249        C568   1.267       .  A
O249      Ni1255   1.874       .  S
C250        O251   1.268       .  A
Ni252      O2257   1.952   1_455  S
Ni253       O909   1.878       .  S
Ni253      O2936   1.960   1_445  S
Ni253       O903   1.890   1_545  S
N255        C259   1.356       .  A
N255        C256   1.364       .  A
N255       C1284   1.448       .  S
C256        C257   1.376       .  A
C256        C661   1.478       .  S
C257        C258   1.371       .  A
C257        H260   1.083       .  S
C258        C259   1.391       .  A
C258        H261   1.083       .  S
C259        C298   1.476       .  S
N262        C266   1.351       .  A
N262        C263   1.360       .  A
N262        C278   1.446       .  S
C263        C264   1.376       .  A
C263        C299   1.475       .  S
C264        C265   1.369       .  A
C264        H267   1.083       .  S
C265        C266   1.390       .  A
C265        H268   1.082       .  S
C266        C324   1.462       .  S
N269        C273   1.357       .  A
N269        C270   1.367       .  A
N269        C280   1.435       .  S
C270        C271   1.382       .  A
C270        C321   1.466       .  S
C271        C272   1.372       .  A
C271        H274   1.083       .  S
C272        C273   1.375       .  A
C272        H275   1.079       .  S
C273        C295   1.470       .  S
C276       N2271   1.448   1_455  S
C276        C281   1.407       .  A
C276        C613   1.410       .  A
C277        C278   1.406       .  A
C277        C948   1.410       .  A
C277        H282   1.078       .  S
C278        C951   1.404       .  A
C279        C280   1.401       .  A
C279        C614   1.404       .  A
C279        H283   1.081       .  S
C280        C281   1.407       .  A
C281       H2300   1.082   1_455  S
H284       C1289   1.082       .  S
O285        C306   1.277       .  A
O285       Ni291   1.936       .  S
O286        C295   1.255       .  A
O286       Ni309   1.875       .  S
O287       Ni291   1.914       .  S
O287       Ni309   1.896       .  S
O287       Ni303   1.905       .  S
O287        H310   0.966       .  S
C288        O305   1.273       .  A
C288        O297   1.291       .  A
O289        C295   1.286       .  A
O289       Ni308   1.986       .  S
O290        C292   1.272       .  A
O290       Ni308   1.943       .  S
Ni291       O294   1.938       .  S
Ni291       O296   1.944       .  S
C292        O302   1.274       .  A
O293        C299   1.271       .  A
O293       Ni309   1.912       .  S
O294        C299   1.277       .  A
O296        C298   1.273       .  A
O297       Ni308   1.973       .  S
C298        O304   1.261       .  A
H300        O301   0.966       .  S
O301       Ni309   1.875       .  S
O301       Ni303   1.876       .  S
O301       Ni308   1.909       .  S
O302       Ni303   1.913       .  S
Ni303       O307   1.908       .  S
Ni303       O305   1.882       .  S
O304       Ni309   1.885       .  S
C306        O307   1.264       .  A
O311        C668   1.274       .  A
O311       Ni317   1.940       .  S
O312       C1329   1.255       .  A
O312       Ni335   1.878       .  S
O313       Ni335   1.896       .  S
O313       Ni329   1.899       .  S
O313       Ni989   1.914       .  S
O313        H336   0.966       .  S
C314        O331   1.288       .  A
C314        O323   1.289       .  A
O315        C321   1.293       .  A
O315      Ni2350   1.987   1_455  S
O316       C2334   1.276       .  A
O316      Ni2350   1.961   1_455  S
Ni317       O320   1.945       .  S
Ni317       O658   1.930       .  S
Ni317       O649   1.914       .  S
C318       C1215   1.492       .  S
C318        O328   1.256       .  A
C318       O1324   1.276       .  A
O319        C325   1.278       .  A
O319       Ni335   1.922       .  S
O320        C661   1.282       .  A
C321       O2328   1.255   1_455  A
O322        C324   1.269       .  A
O322       Ni989   1.930       .  S
O323       Ni334   1.961       .  S
C324        O330   1.257       .  A
C325        C928   1.478       .  S
C325        O992   1.282       .  A
H326        O327   0.965       .  S
O327       Ni335   1.885       .  S
O327       Ni329   1.857       .  S
O327       Ni334   1.907       .  S
O328       Ni329   1.906       .  S
Ni329       O333   1.879       .  S
Ni329       O331   1.940       .  S
O330       Ni335   1.876       .  S
C332        C889   1.440       .  S
C332        O333   1.253       .  A
C332        O983   1.274   1_545  A
Ni334      O1323   1.987       .  S
Ni334      O1324   1.961       .  S
N337        C341   1.355       .  A
N337        C338   1.368       .  A
N337       C2378   1.449   1_455  S
C338        C339   1.391       .  A
C338        C628   1.493       .  S
C339        C340   1.365       .  A
C339        H342   1.083       .  S
C340        C341   1.371       .  A
C340        H343   1.077       .  S
C341        C411   1.469       .  S
N344        C348   1.370       .  A
N344        C345   1.376       .  A
N344        C360   1.465       .  S
C345        C346   1.393       .  A
C345        C410   1.500       .  S
C346        C347   1.353       .  A
C346        H349   1.081       .  S
C347        C348   1.375       .  A
C347        H350   1.083       .  S
C348        C642   1.469       .  S
N351        C352   1.368       .  A
N351        C358   1.470       .  S
C352        C407   1.473       .  S
C353        C688   1.387       .  A
C353        C354   1.346       .  A
C353        H356   1.081       .  S
C354        C355   1.374       .  A
C354        H357   1.083       .  S
C355        N687   1.374       .  A
C355        C624   1.472       .  S
C358        C359   1.431       .  A
C358        C363   1.419       .  A
C359        C360   1.428       .  A
C359        H364   1.082       .  S
C360        C361   1.417       .  A
C361        C362   1.380       .  A
C361        H365   1.079       .  S
C362       N1345   1.449       .  S
C362        C363   1.408       .  A
C363        H366   1.081       .  S
N367        C707   1.361       .  A
N367        C368   1.370       .  A
N367        C383   1.459       .  S
C368        C705   1.386       .  A
C368        C418   1.473       .  S
C369        C370   1.365       .  A
C369        H372   1.084       .  S
C370        C371   1.371       .  A
C370        H373   1.077       .  S
C371        C456   1.470       .  S
N374        C378   1.370       .  A
N374        C375   1.371       .  A
N374        C381   1.457       .  S
C375        C376   1.382       .  A
C375        C460   1.482       .  S
C376        C377   1.365       .  A
C376        H379   1.082       .  S
C377        C378   1.400       .  A
C377        H380   1.083       .  S
C378        C404   1.506       .  S
C381        C382   1.431       .  A
C381        C386   1.425       .  A
C382        C383   1.381       .  A
C382        H387   1.074       .  S
C383        C384   1.387       .  A
C384        C385   1.385       .  A
C384        H388   1.036       .  S
C385        N390   1.458       .  S
C385        C386   1.418       .  A
C386        H389   1.082       .  S
N390        C394   1.369       .  A
N390        C391   1.357       .  A
C391        C392   1.387       .  A
C391        C474   1.445       .  S
C392        C393   1.361       .  A
C392       H2411   1.082   1_455  S
C393        C394   1.370       .  A
C393        H396   1.082       .  S
C394        C400   1.465       .  S
H395       C1400   1.082       .  S
O397        C418   1.278       .  A
O397       Ni739   1.949   1_556  S
O398        C407   1.269       .  A
O398       Ni421   1.922       .  S
O399      Ni2419   1.926   1_456  S
O399       Ni421   1.884   1_556  S
O399        H422   0.966       .  S
C400        O417   1.253       .  A
C400        O409   1.264       .  A
O401        C407   1.269   1_556  A
O402        C404   1.266       .  A
Ni403       O406   1.935       .  S
Ni403      O1407   1.926   1_554  S
C404        O414   1.297       .  A
O405        C411   1.281       .  A
O405       Ni421   1.913       .  S
O406       C1419   1.279       .  A
O408        C410   1.277       .  A
O408       Ni739   1.958       .  S
O409       Ni420   1.924       .  S
C410       O1424   1.266       .  A
C411       O2422   1.279   1_455  A
H412        O413   0.966       .  S
O413       Ni757   1.944   1_556  S
O413       Ni415   1.903       .  S
O413       Ni420   1.895       .  S
Ni415       O750   2.021       .  S
Ni415      O2435   1.889   1_455  S
Ni415       O417   1.890       .  S
Ni415       O735   1.892       .  S
O416       C2426   1.266   1_455  A
O416       Ni757   1.895       .  S
C418        O419   1.267       .  A
O419      Ni1423   1.889       .  S
Ni420       O737   1.893       .  S
Ni420       O738   1.864       .  S
N423        C427   1.358       .  A
N423        C424   1.363       .  A
N423        C448   1.442       .  S
C424        C425   1.387       .  A
C424        C516   1.473       .  S
C425        C426   1.355       .  A
C425        H428   1.081       .  S
C426        C427   1.374       .  A
C426        H429   1.081       .  S
C427        C467   1.465       .  S
N430        C434   1.366       .  A
N430        C767   1.368       .  A
N430        C780   1.457       .  S
C431        C463   1.471       .  S
C432        C767   1.390       .  A
C432        C433   1.355       .  A
C432        H771   1.080       .  S
C433        C434   1.368       .  A
C433        H436   1.083       .  S
C434        C512   1.457       .  S
N437       C1449   1.372       .  A
N437        C438   1.365       .  A
N437       C1454   1.454       .  S
C438        C439   1.379       .  A
C438        C466   1.479       .  S
C439       C1448   1.364       .  A
C439        H442   1.074       .  S
C440       C2455   1.364       .  A
C440        C441   1.379       .  A
C440        H443   1.082       .  S
C441       N2453   1.372       .  A
C441        C530   1.480   1_655  S
C444        C445   1.424       .  A
C445        C446   1.424   1_455  A
C445        H450   1.082       .  S
C446       N2453   1.454       .  S
C446       C2463   1.411       .  A
C447       C1454   1.411       .  A
C447        H451   1.077       .  S
C448        C783   1.385       .  A
C448       C1457   1.390       .  A
C449        C780   1.408   1_655  A
C449       C2464   1.390       .  A
C449        H452   1.077       .  S
O453        C474   1.264       .  A
O453      Ni2475   1.913   1_455  S
O454        C463   1.264       .  A
O454       Ni477   1.901       .  S
O455       Ni459   1.923       .  S
O455       Ni477   1.890       .  S
O455       Ni471   1.924       .  S
O455        H478   0.966       .  S
C456        O473   1.263       .  A
C456        O465   1.270       .  A
O457        C463   1.273       .  A
O457       Ni476   1.933       .  S
O458        C460   1.270       .  A
O458       Ni476   1.910       .  S
Ni459      O1461   1.913       .  S
Ni459       O462   1.946       .  S
Ni459       O464   1.902       .  S
C460        O470   1.283       .  A
O461        C467   1.266       .  A
O461       Ni477   1.881       .  S
O462        C467   1.278       .  A
O464        C466   1.264       .  A
O465       Ni476   1.938       .  S
C466        O472   1.277       .  A
H468        O469   0.967       .  S
O469       Ni477   1.913       .  S
O469       Ni471   1.905       .  S
O469       Ni476   1.929       .  S
O470       Ni471   1.957       .  S
Ni471       O475   1.898       .  S
Ni471       O473   1.906       .  S
O472       Ni477   1.948       .  S
C474       O2491   1.258   1_455  A
O475       C1482   1.258       .  A
N479        C483   1.373       .  A
N479        C480   1.370       .  A
N479        C500   1.476       .  S
C480        C481   1.385       .  A
C480        C523   1.501       .  S
C481        C482   1.366       .  A
C481        H484   1.080       .  S
C482        C483   1.391       .  A
C482        H485   1.083       .  S
C483        C572   1.512       .  S
N486       C1498   1.371       .  A
N486       C1495   1.364       .  A
N486        C504   1.450       .  S
C487       N2502   1.364       .  A
C487        C488   1.366       .  A
C487        C522   1.476       .  S
C488        C489   1.352       .  A
C488        H491   1.066       .  S
C489        C490   1.380       .  A
C489        H492   1.084       .  S
C490       N2502   1.371       .  A
C490        C586   1.459       .  S
N493        C497   1.359       .  A
N493        C494   1.373       .  A
N493        C502   1.446       .  S
C494        C568   1.485       .  S
C495        C830   1.384       .  A
C495        C496   1.353       .  A
C495        H498   1.083       .  S
C496        C833   1.376       .  A
C496        H499   1.083       .  S
C500        C501   1.425       .  A
C500        C505   1.442       .  A
C501        C502   1.423       .  A
C501        H506   1.082       .  S
C502        C503   1.384       .  A
C503        C504   1.379       .  A
C503        H507   1.075       .  S
C504        C505   1.403       .  A
C505        H508   1.079       .  S
O509        C530   1.285       .  A
O509       Ni515   1.958       .  S
O510        C519   1.255       .  A
O510       Ni533   1.882       .  S
O511       Ni515   1.910       .  S
O511       Ni533   1.881       .  S
O511       Ni527   1.915       .  S
O511        H534   0.964       .  S
C512        O529   1.279       .  A
C512        O521   1.285       .  A
O513        C519   1.276       .  A
O513       Ni532   1.943       .  S
O514        C516   1.268       .  A
O514       Ni532   1.941       .  S
Ni515       O518   1.954       .  S
Ni515       O520   1.942       .  S
C516        O526   1.260       .  A
O517        C523   1.281       .  A
O517       Ni533   1.933       .  S
O518        C523   1.282       .  A
C519        C833   1.444       .  S
O520        C522   1.274       .  A
O521       Ni532   1.949       .  S
C522        O528   1.256       .  A
H524        O525   0.966       .  S
O525       Ni533   1.883       .  S
O525       Ni527   1.892       .  S
O525       Ni532   1.902       .  S
O526       Ni527   1.900       .  S
Ni527       O531   1.908       .  S
Ni527       O529   1.901       .  S
O528       Ni533   1.902       .  S
C530        O531   1.267       .  A
N535        C539   1.372       .  A
N535        C536   1.370       .  A
N535        C556   1.479       .  S
C536        C537   1.384       .  A
C536        C650   1.501       .  S
C537        C538   1.366       .  A
C537        H540   1.080       .  S
C538        C539   1.390       .  A
C538        H541   1.083       .  S
C539        C578   1.508       .  S
N542        C546   1.374       .  A
N542        C543   1.368       .  A
N542        C558   1.447       .  S
C543       C2560   1.370   1_455  A
C543       C2670   1.492       .  S
C544       C1551   1.370       .  A
C544        C545   1.352       .  A
C544        H547   1.066       .  S
C545       C1554   1.377       .  A
C545        H548   1.084       .  S
C546       C2561   1.377   1_455  A
C546        C575   1.463       .  S
N549        C553   1.354       .  A
N549        C550   1.371       .  A
N549        C560   1.447       .  S
C550        C551   1.386       .  A
C550        C579   1.481       .  S
C551        C888   1.354       .  A
C551        H890   1.083       .  S
C552        H555   1.083       .  S
C553        C888   1.376       .  A
C553       C1004   1.440       .  S
C556        C557   1.440       .  A
C556        C561   1.426       .  A
C557        C558   1.408       .  A
C557        H562   1.080       .  S
C558        C559   1.380       .  A
C559        C560   1.384       .  A
C559        H563   1.078       .  S
C560        C561   1.426       .  A
C561        H564   1.082       .  S
O565        C586   1.274   1_655  A
O565       Ni571   1.948   1_655  S
O566        C575   1.267       .  A
O566       Ni589   1.881       .  S
O567       Ni571   1.893       .  S
O567       Ni925   1.890       .  S
O567       Ni583   1.894       .  S
O567        H590   0.966       .  S
C568        O577   1.282       .  A
O569        C575   1.277       .  A
O569       Ni588   1.958       .  S
O570        C572   1.275       .  A
O570       Ni588   1.915       .  S
Ni571       O574   1.945       .  S
Ni571      O2592   1.917   1_455  S
C572        O582   1.279       .  A
O573        C579   1.268       .  A
O573       Ni925   1.878       .  S
O574        C579   1.279       .  A
O576        C578   1.275       .  A
O576      Ni1579   1.917       .  S
O577      Ni1596   1.952       .  S
C578        O584   1.275       .  A
H580       O1925   0.966       .  S
O581       Ni589   1.893       .  S
O581       Ni588   1.888       .  S
O581       H2260   0.966   1_455  S
Ni583       O918   1.971       .  S
Ni583       O587   1.886       .  S
Ni583      O2601   1.874   1_455  S
Ni583       O917   1.891       .  S
O584      Ni1933   1.960       .  S
O585        C904   1.267       .  A
O585      Ni1591   1.874       .  S
C586        O587   1.268       .  A
Ni588      O2593   1.952   1_455  S
Ni589      O2264   1.960   1_455  S
N591        C595   1.356       .  A
N591        C592   1.364       .  A
N591       C1620   1.448       .  S
C592        C593   1.376       .  A
C592        C997   1.478       .  S
C593        C594   1.371       .  A
C593        H596   1.083       .  S
C594        C595   1.391       .  A
C594        H597   1.083       .  S
C595        C634   1.476       .  S
N598        C602   1.351       .  A
N598        C599   1.360       .  A
N598        C614   1.446       .  S
C599        C600   1.376       .  A
C599        C635   1.475       .  S
C600        C601   1.369       .  A
C600        H603   1.083       .  S
C601        C602   1.390       .  A
C601        H604   1.082       .  S
C602        C660   1.462       .  S
N605        C609   1.357       .  A
N605        C606   1.367       .  A
N605        C616   1.436       .  S
C606        C607   1.382       .  A
C606        C657   1.466       .  S
C607        C608   1.372       .  A
C607        H610   1.083       .  S
C608        C609   1.375       .  A
C608        H611   1.079       .  S
C609        C631   1.470       .  S
C612       N2607   1.448   1_455  S
C612        C949   1.410       .  A
C612        C617   1.407       .  A
C613        C614   1.406       .  A
C613        H618   1.078       .  S
C615        C950   1.404       .  A
C615        C616   1.401       .  A
C615        H619   1.081       .  S
C616        C617   1.407       .  A
C617       H2636   1.082   1_455  S
H620       C1625   1.082       .  S
O621        C642   1.277       .  A
O621       Ni627   1.936       .  S
O622        C631   1.255       .  A
O622       Ni645   1.875       .  S
O623       Ni627   1.914       .  S
O623       Ni645   1.896       .  S
O623       Ni639   1.905       .  S
O623        H646   0.966       .  S
C624        O641   1.273       .  A
C624        O633   1.291       .  A
O625        C631   1.286       .  A
O625       Ni644   1.986       .  S
O626        C628   1.272       .  A
O626       Ni644   1.943       .  S
Ni627       O630   1.938       .  S
Ni627       O632   1.944       .  S
C628        O638   1.274       .  A
O629        C635   1.271       .  A
O629       Ni645   1.912       .  S
O630        C635   1.277       .  A
O632        C634   1.273       .  A
O633       Ni644   1.973       .  S
C634        O640   1.261       .  A
H636        O637   0.966       .  S
O637       Ni645   1.875       .  S
O637       Ni639   1.876       .  S
O637       Ni644   1.909       .  S
O638       Ni639   1.913       .  S
Ni639       O643   1.908       .  S
Ni639       O641   1.882       .  S
O640       Ni645   1.885       .  S
C642        O643   1.264       .  A
O647       C1004   1.274       .  A
O647       Ni653   1.940       .  S
O648       C1665   1.255       .  A
O648       Ni671   1.878       .  S
O649       Ni671   1.896       .  S
O649       Ni665   1.899       .  S
O649        H672   0.966       .  S
C650        O667   1.288       .  A
C650        O659   1.289       .  A
O651        C657   1.293       .  A
O651      Ni2686   1.987   1_455  S
O652       C2670   1.276       .  A
O652      Ni2686   1.961   1_455  S
Ni653       O656   1.945       .  S
Ni653       O994   1.930       .  S
Ni653       O985   1.914       .  S
C654       C1551   1.492       .  S
C654       O1660   1.276       .  A
C654        O664   1.256       .  A
O655        C661   1.278       .  A
O655       Ni671   1.922       .  S
O656        C997   1.282       .  A
C657       O2664   1.255   1_455  A
O658        C660   1.269       .  A
O659       Ni670   1.961       .  S
C660        O666   1.257       .  A
H662        O663   0.965       .  S
O663       Ni671   1.885       .  S
O663       Ni665   1.857       .  S
O663       Ni670   1.907       .  S
O664       Ni665   1.906       .  S
Ni665       O669   1.879       .  S
Ni665       O667   1.940       .  S
O666       Ni671   1.876       .  S
C668        O669   1.253       .  A
Ni670      O1659   1.987       .  S
Ni670      O1660   1.961       .  S
N673        C677   1.355       .  A
N673        C674   1.368       .  A
N673       C2714   1.449   1_455  S
C674        C675   1.391       .  A
C674        C964   1.493       .  S
C675        C676   1.365       .  A
C675        H678   1.083       .  S
C676        C677   1.371       .  A
C676        H679   1.077       .  S
C677        C747   1.469       .  S
N680        C684   1.370       .  A
N680        C681   1.376       .  A
N680        C696   1.465       .  S
C681        C682   1.393       .  A
C681        C746   1.500       .  S
C682        C683   1.353       .  A
C682        H685   1.081       .  S
C683        C684   1.375       .  A
C683        H686   1.083       .  S
C684        C978   1.469       .  S
N687        C688   1.368       .  A
N687        C694   1.470       .  S
C688        C743   1.473       .  S
C689        C690   1.346       .  A
C689        H692   1.081       .  S
C690        C691   1.374       .  A
C690        H693   1.083       .  S
C691        C960   1.472       .  S
C694        C695   1.431       .  A
C694        C699   1.419       .  A
C695        C696   1.428       .  A
C695        H700   1.082       .  S
C696        C697   1.417       .  A
C697        C698   1.380       .  A
C697        H701   1.079       .  S
C698       N1681   1.449       .  S
C698        C699   1.408       .  A
C699        H702   1.081       .  S
N703        C704   1.370       .  A
N703        C719   1.459       .  S
C704        C754   1.473       .  S
C705        C706   1.365       .  A
C705        H708   1.084       .  S
C706        C707   1.371       .  A
C706        H709   1.077       .  S
C707        C792   1.470       .  S
N710        C714   1.370       .  A
N710        C711   1.371       .  A
N710        C717   1.457       .  S
C711        C712   1.382       .  A
C711        C796   1.482       .  S
C712        C713   1.365       .  A
C712        H715   1.082       .  S
C713        C714   1.400       .  A
C713        H716   1.083       .  S
C714        C740   1.506       .  S
C717        C718   1.431       .  A
C717        C722   1.425       .  A
C718        C719   1.381       .  A
C718        H723   1.074       .  S
C719        C720   1.387       .  A
C720        C721   1.385       .  A
C720        H724   1.036       .  S
C721        N726   1.458       .  S
C721        C722   1.418       .  A
C722        H725   1.082       .  S
N726        C730   1.369       .  A
N726        C727   1.357       .  A
C727        C728   1.387       .  A
C727        C810   1.445       .  S
C728        C729   1.361       .  A
C728       H2747   1.082   1_455  S
C729        C730   1.370       .  A
C729        H732   1.082       .  S
C730        C736   1.465       .  S
H731       C1736   1.082       .  S
O733        C754   1.278       .  A
O734        C743   1.269       .  A
O734       Ni757   1.922       .  S
O735      Ni2755   1.926   1_456  S
O735       Ni757   1.884   1_556  S
O735        H758   0.966       .  S
C736        O753   1.253       .  A
C736        O745   1.264       .  A
O737        C743   1.269   1_556  A
O738        C740   1.266       .  A
Ni739       O742   1.935       .  S
Ni739      O1743   1.926   1_554  S
C740        O750   1.297       .  A
O741        C747   1.281       .  A
O741       Ni757   1.913       .  S
O742       C1755   1.279       .  A
O744        C746   1.277       .  A
O745       Ni756   1.924       .  S
C746       O1760   1.266       .  A
C747       O2758   1.279   1_455  A
H748        O749   0.966       .  S
O749       Ni751   1.903       .  S
O749       Ni756   1.895       .  S
Ni751      O2771   1.889   1_455  S
Ni751       O753   1.890       .  S
O752       C2762   1.266   1_455  A
C754        O755   1.267       .  A
O755      Ni1759   1.889       .  S
N759        C763   1.358       .  A
N759        C760   1.363       .  A
N759        C784   1.442       .  S
C760        C761   1.387       .  A
C760        C852   1.473       .  S
C761        C762   1.355       .  A
C761        H764   1.081       .  S
C762        C763   1.374       .  A
C762        H765   1.081       .  S
C763        C803   1.465       .  S
N766        C770   1.366       .  A
C767        C799   1.471       .  S
C768        C769   1.355       .  A
C769        C770   1.368       .  A
C769        H772   1.083       .  S
C770        C848   1.457       .  S
N773       C1785   1.372       .  A
N773        C774   1.365       .  A
N773       C1790   1.454       .  S
C774        C775   1.379       .  A
C774        C802   1.479       .  S
C775       C1784   1.364       .  A
C775        H778   1.074       .  S
C776       C2791   1.364       .  A
C776        C777   1.379       .  A
C776        H779   1.082       .  S
C777       N2789   1.372       .  A
C777        C866   1.480   1_655  S
C780        C781   1.424       .  A
C781        C782   1.424   1_455  A
C781        H786   1.082       .  S
C782       N2789   1.454       .  S
C782       C2799   1.411       .  A
C783       C1790   1.411       .  A
C783        H787   1.077       .  S
C784       C1793   1.390       .  A
C785       C2800   1.390       .  A
C785        H788   1.077       .  S
O789        C810   1.264       .  A
O789      Ni2811   1.913   1_455  S
O790        C799   1.264       .  A
O790       Ni813   1.901       .  S
O791       Ni795   1.923       .  S
O791       Ni813   1.890       .  S
O791       Ni807   1.924       .  S
O791        H814   0.966       .  S
C792        O809   1.263       .  A
C792        O801   1.270       .  A
O793        C799   1.273       .  A
O793       Ni812   1.933       .  S
O794        C796   1.270       .  A
O794       Ni812   1.910       .  S
Ni795      O1797   1.913       .  S
Ni795       O798   1.946       .  S
Ni795       O800   1.902       .  S
C796        O806   1.283       .  A
O797        C803   1.266       .  A
O797       Ni813   1.881       .  S
O798        C803   1.278       .  A
O800        C802   1.264       .  A
O801       Ni812   1.938       .  S
C802        O808   1.277       .  A
H804        O805   0.967       .  S
O805       Ni813   1.913       .  S
O805       Ni807   1.905       .  S
O805       Ni812   1.929       .  S
O806       Ni807   1.957       .  S
Ni807       O811   1.898       .  S
Ni807       O809   1.906       .  S
O808       Ni813   1.948       .  S
C810       O2827   1.258   1_455  A
O811       C1818   1.258       .  A
N815        C819   1.373       .  A
N815        C816   1.370       .  A
N815        C836   1.476       .  S
C816        C817   1.385       .  A
C816        C859   1.501       .  S
C817        C818   1.366       .  A
C817        H820   1.080       .  S
C818        C819   1.391       .  A
C818        H821   1.083       .  S
C819        C908   1.512       .  S
N822       C1834   1.371       .  A
N822       C1831   1.364       .  A
N822        C840   1.450       .  S
C823       N2838   1.364       .  A
C823        C824   1.366       .  A
C823        C858   1.476       .  S
C824        C825   1.352       .  A
C824        H827   1.066       .  S
C825        C826   1.380       .  A
C825        H828   1.084       .  S
C826       N2838   1.371       .  A
C826        C922   1.459       .  S
N829        C833   1.359       .  A
N829        C830   1.373       .  A
N829        C838   1.446       .  S
C830        C904   1.485       .  S
C831        C832   1.353       .  A
C831        H834   1.083       .  S
C832        H835   1.083       .  S
C836        C837   1.425       .  A
C836        C841   1.442       .  A
C837        C838   1.423       .  A
C837        H842   1.082       .  S
C838        C839   1.384       .  A
C839        C840   1.379       .  A
C839        H843   1.075       .  S
C840        C841   1.403       .  A
C841        H844   1.079       .  S
O845        C866   1.285       .  A
O845       Ni851   1.958       .  S
O846        C855   1.255       .  A
O846       Ni869   1.882       .  S
O847       Ni851   1.910       .  S
O847       Ni869   1.881       .  S
O847       Ni863   1.915       .  S
O847        H870   0.964       .  S
C848        O865   1.279       .  A
C848        O857   1.285       .  A
O849        C855   1.276       .  A
O849       Ni868   1.943       .  S
O850        C852   1.268       .  A
O850       Ni868   1.941       .  S
Ni851       O854   1.954       .  S
Ni851       O856   1.942       .  S
C852        O862   1.260       .  A
O853        C859   1.281       .  A
O853       Ni869   1.933       .  S
O854        C859   1.282       .  A
O856        C858   1.274       .  A
O857       Ni868   1.949       .  S
C858        O864   1.256       .  A
H860        O861   0.966       .  S
O861       Ni869   1.883       .  S
O861       Ni863   1.892       .  S
O861       Ni868   1.902       .  S
O862       Ni863   1.900       .  S
Ni863       O867   1.908       .  S
Ni863       O865   1.901       .  S
O864       Ni869   1.902       .  S
C866        O867   1.267       .  A
N871        C875   1.372       .  A
N871        C872   1.370       .  A
N871        C892   1.479       .  S
C872        C873   1.384       .  A
C872        C986   1.501       .  S
C873        C874   1.366       .  A
C873        H876   1.080       .  S
C874        C875   1.390       .  A
C874        H877   1.083       .  S
C875        C914   1.508       .  S
N878        C882   1.374       .  A
N878        C879   1.368       .  A
N878        C894   1.447       .  S
C879       C2896   1.370   1_455  A
C879       C3006   1.492       .  S
C880       C1887   1.370       .  A
C880        C881   1.352       .  A
C880        H883   1.066       .  S
C881       C1890   1.377       .  A
C881        H884   1.084       .  S
C882       C2897   1.377   1_455  A
C882        C911   1.463       .  S
N885        C889   1.354   1_565  A
N885        C886   1.371   1_565  A
N885        C896   1.447       .  S
C886        C887   1.386       .  A
C886        C915   1.481   1_545  S
C888        H891   1.083       .  S
C892        C893   1.440       .  A
C892        C897   1.426       .  A
C893        C894   1.408       .  A
C893        H898   1.080       .  S
C894        C895   1.380       .  A
C895        C896   1.384       .  A
C895        H899   1.078       .  S
C896        C897   1.426       .  A
C897        H900   1.082       .  S
O901        C922   1.274   1_655  A
O901       Ni907   1.948   1_655  S
O902        C911   1.267       .  A
O902       Ni925   1.881       .  S
O903       Ni907   1.893       .  S
O903       Ni919   1.894       .  S
O903        H926   0.966       .  S
C904        O913   1.282       .  A
O905        C911   1.277       .  A
O905       Ni924   1.958       .  S
O906        C908   1.275       .  A
O906       Ni924   1.915       .  S
Ni907       O910   1.945       .  S
Ni907      O2928   1.917   1_455  S
C908        O918   1.279       .  A
O909        C915   1.268   1_545  A
O910        C915   1.279       .  A
O912        C914   1.275       .  A
O912      Ni1915   1.917       .  S
O913      Ni1932   1.952       .  S
C914        O920   1.275       .  A
H916       O1253   0.966   1_565  S
O917       Ni925   1.893       .  S
O917       Ni924   1.888       .  S
O917       H2596   0.966   1_455  S
Ni919       O923   1.886       .  S
Ni919      O2937   1.874   1_455  S
O920      Ni1261   1.960   1_565  S
O921      Ni1927   1.874       .  S
C922        O923   1.268       .  A
Ni924      O2929   1.952   1_455  S
Ni925      O2600   1.960   1_455  S
N927        C931   1.356   1_545  A
N927        C928   1.364       .  A
N927       C1956   1.448       .  S
C928        C929   1.376       .  A
C929        C930   1.371       .  A
C929        H932   1.083       .  S
C930        C931   1.391   1_545  A
C930        H933   1.083       .  S
C931        C970   1.476       .  S
N934        C938   1.351       .  A
N934        C935   1.360       .  A
N934        C950   1.446       .  S
C935        C936   1.376       .  A
C935        C971   1.475       .  S
C936        C937   1.369       .  A
C936        H939   1.083       .  S
C937        C938   1.390       .  A
C937        H940   1.082       .  S
C938        C996   1.462       .  S
N941        C945   1.357       .  A
N941        C942   1.367       .  A
N941        C952   1.436       .  S
C942        C943   1.382       .  A
C942        C993   1.466       .  S
C943        C944   1.372       .  A
C943        H946   1.083       .  S
C944        C945   1.375       .  A
C944        H947   1.079       .  S
C945        C967   1.470       .  S
C948       N2943   1.448   1_455  S
C948        C953   1.407   1_545  A
C949        C950   1.406       .  A
C949        H954   1.078       .  S
C951        C952   1.401   1_545  A
C951        H955   1.081       .  S
C952        C953   1.407       .  A
C953       H2972   1.082   1_455  S
H956       C1961   1.082       .  S
O957        C978   1.277       .  A
O957       Ni963   1.936       .  S
O958        C967   1.255       .  A
O958       Ni981   1.875       .  S
O959       Ni963   1.914       .  S
O959       Ni981   1.896       .  S
O959       Ni975   1.905       .  S
O959        H982   0.966       .  S
C960        O977   1.273       .  A
C960        O969   1.291       .  A
O961        C967   1.286       .  A
O961       Ni980   1.986       .  S
O962        C964   1.272       .  A
O962       Ni980   1.943       .  S
Ni963       O966   1.938       .  S
Ni963       O968   1.944       .  S
C964        O974   1.274       .  A
O965        C971   1.271       .  A
O965       Ni981   1.912       .  S
O966        C971   1.277       .  A
O968        C970   1.273       .  A
O969       Ni980   1.973       .  S
C970        O976   1.261       .  A
H972        O973   0.966       .  S
O973       Ni981   1.875       .  S
O973       Ni975   1.876       .  S
O973       Ni980   1.909       .  S
O974       Ni975   1.913       .  S
Ni975       O979   1.908       .  S
Ni975       O977   1.882       .  S
O976       Ni981   1.885       .  S
C978        O979   1.264       .  A
O983       Ni989   1.940   1_565  S
O984       C2001   1.255       .  A
O984      Ni1007   1.878       .  S
O985      Ni1007   1.896       .  S
O985      Ni1001   1.899       .  S
O985       H1008   0.966       .  S
C986       O1003   1.288       .  A
C986        O995   1.289       .  A
O987        C993   1.293       .  A
O987      Ni3022   1.987   1_455  S
O988       C3006   1.276       .  A
O988      Ni3022   1.961   1_455  S
Ni989       O992   1.945       .  S
C990       C1887   1.492       .  S
C990       O1996   1.276       .  A
C990       O1000   1.256       .  A
O991        C997   1.278       .  A
O991      Ni1007   1.922       .  S
C993       O3000   1.255   1_455  A
O994        C996   1.269       .  A
O995      Ni1006   1.961       .  S
C996       O1002   1.257       .  A
H998        O999   0.965       .  S
O999      Ni1007   1.885       .  S
O999      Ni1001   1.857       .  S
O999      Ni1006   1.907       .  S
O1000     Ni1001   1.906       .  S
Ni1001     O1005   1.879       .  S
Ni1001     O1003   1.940       .  S
O1002     Ni1007   1.876       .  S
C1004      O1005   1.253       .  A
Ni1006     O1995   1.987       .  S
Ni1006     O1996   1.961       .  S
N1009      C1013   1.355       .  A
N1009      C1010   1.368       .  A
C1010      C1011   1.391       .  A
C1010      C1300   1.493       .  S
C1011      C1012   1.365       .  A
C1011      H1014   1.083       .  S
C1012      C1013   1.371       .  A
C1012      H1015   1.077       .  S
C1013      C1083   1.469       .  S
N1016      C1020   1.370       .  A
N1016      C1017   1.376       .  A
N1016      C1032   1.465       .  S
C1017      C1018   1.393       .  A
C1017      C1082   1.500       .  S
C1018      C1019   1.353       .  A
C1018      H1021   1.081       .  S
C1019      C1020   1.375       .  A
C1019      H1022   1.083       .  S
C1020      C1314   1.469       .  S
N1023      C1699   1.374   1_545  A
N1023      C1024   1.368       .  A
N1023      C1030   1.470       .  S
C1024      C1697   1.387   1_545  A
C1024      C1079   1.473       .  S
C1025      C1360   1.387       .  A
C1025      C1026   1.346       .  A
C1025      H1028   1.081       .  S
C1026      C1027   1.374       .  A
C1026      H1029   1.083       .  S
C1027      N1359   1.374       .  A
C1027      C1296   1.472       .  S
C1030      C1031   1.431       .  A
C1030      C1035   1.419       .  A
C1031      C1032   1.428       .  A
C1031      H1036   1.082       .  S
C1032      C1033   1.417       .  A
C1033      C1034   1.380       .  A
C1033      H1037   1.079       .  S
C1034      N2017   1.449       .  S
C1034      C1035   1.408       .  A
C1035      H1038   1.081       .  S
N1039      C1379   1.361       .  A
N1039      C1040   1.370       .  A
N1039      C1055   1.459       .  S
C1040      C1377   1.386       .  A
C1040      C1090   1.473       .  S
C1041      C1712   1.386   1_545  A
C1041      C1042   1.365       .  A
C1041      H1044   1.084       .  S
C1042      C1043   1.371       .  A
C1042      H1045   1.077       .  S
C1043      N1711   1.361   1_545  A
C1043      C1128   1.470       .  S
N1046      C1050   1.370       .  A
N1046      C1047   1.371       .  A
N1046      C1053   1.457       .  S
C1047      C1048   1.382       .  A
C1047      C1132   1.482       .  S
C1048      C1049   1.365       .  A
C1048      H1051   1.082       .  S
C1049      C1050   1.400       .  A
C1049      H1052   1.083       .  S
C1050      C1076   1.506       .  S
C1053      C1054   1.431       .  A
C1053      C1058   1.425       .  A
C1054      C1055   1.381       .  A
C1054      H1059   1.074       .  S
C1055      C1056   1.387       .  A
C1056      C1057   1.385       .  A
C1056      H1060   1.036       .  S
C1057      N1062   1.458       .  S
C1057      C1058   1.418       .  A
C1058      H1061   1.082       .  S
N1062      C1066   1.369       .  A
N1062      C1063   1.357       .  A
C1063      C1064   1.387       .  A
C1063      C1146   1.445       .  S
C1064      C1065   1.361       .  A
C1065      C1066   1.370       .  A
C1065      H1068   1.082       .  S
C1066      C1072   1.465       .  S
H1067      C2072   1.082       .  S
O1069      C1090   1.278       .  A
O1069     Ni1411   1.949   1_556  S
O1070      C1079   1.269       .  A
O1070     Ni1093   1.922       .  S
O1071     Ni1093   1.884   1_556  S
O1071     Ni1759   1.892   1_545  S
O1071      H1094   0.966       .  S
C1072      O1089   1.253       .  A
C1072      O1081   1.264       .  A
O1073      C1079   1.269   1_566  A
O1073     Ni1764   1.893       .  S
O1074      C1076   1.266       .  A
O1074     Ni1764   1.864   1_545  S
Ni1075     O1741   1.949   1_554  S
Ni1075     O1078   1.935   1_565  S
Ni1075     O1752   1.958       .  S
Ni1075     O2079   1.926   1_564  S
C1076      O1086   1.297       .  A
O1077      C1083   1.281       .  A
O1077     Ni1093   1.913       .  S
O1078      C2091   1.279       .  A
O1080      C1082   1.277       .  A
O1080     Ni1411   1.958       .  S
O1081     Ni1092   1.924       .  S
C1082      O2096   1.266       .  A
H1084      O1085   0.966       .  S
O1085     Ni1429   1.944   1_556  S
O1085     Ni1087   1.903       .  S
O1085     Ni1092   1.895       .  S
O1086     Ni1759   2.021   1_545  S
Ni1087     O1422   2.021       .  S
Ni1087     O1089   1.890       .  S
Ni1087     O1407   1.892       .  S
O1088     Ni1429   1.895       .  S
C1090      O1091   1.267       .  A
O1091     Ni2095   1.889       .  S
Ni1092     O1409   1.893       .  S
Ni1092     O1410   1.864       .  S
Ni1093     O1760   1.895   1_545  S
Ni1093     O1757   1.944   1_544  S
N1095      C1099   1.358       .  A
N1095      C1096   1.363       .  A
N1095      C1120   1.442       .  S
C1096      C1097   1.387       .  A
C1096      C1188   1.473       .  S
C1097      C1098   1.355       .  A
C1097      H1100   1.081       .  S
C1098      C1099   1.374       .  A
C1098      H1101   1.081       .  S
C1099      C1139   1.465       .  S
N1102      C1106   1.366       .  A
N1102      C1439   1.368       .  A
N1102      C1452   1.457       .  S
C1103      N1774   1.368       .  A
C1103      C1776   1.390       .  A
C1103      C1135   1.471   1_565  S
C1104      C1439   1.390       .  A
C1104      C1105   1.355       .  A
C1104      H1443   1.080       .  S
C1105      C1106   1.368       .  A
C1105      H1108   1.083       .  S
C1106      C1184   1.457       .  S
H1107      C1776   1.080       .  S
N1109      C2121   1.372       .  A
N1109      C1110   1.365       .  A
N1109      C2126   1.454       .  S
C1110      C1111   1.379       .  A
C1110      C1138   1.479       .  S
C1111      C2120   1.364       .  A
C1111      H1114   1.074       .  S
C1112      C1113   1.379       .  A
C1112      H1115   1.082       .  S
C1113      C1202   1.480       .  S
C1116      N1774   1.457       .  S
C1116      C1117   1.424   1_565  A
C1116      C1793   1.408       .  A
C1117      C1118   1.424       .  A
C1117      H1122   1.082       .  S
C1119      C2126   1.411   1_565  A
C1119      C1792   1.385       .  A
C1119      H1123   1.077       .  S
C1120      C1455   1.385       .  A
C1120      C2129   1.390       .  A
C1121      C1452   1.408       .  A
C1121      H1124   1.077       .  S
O1125      C1146   1.264       .  A
O1126      C1135   1.264       .  A
O1126     Ni1149   1.901       .  S
O1127     Ni1131   1.923       .  S
O1127     Ni1149   1.890       .  S
O1127     Ni1143   1.924       .  S
O1127      H1150   0.966       .  S
C1128      O1145   1.263       .  A
C1128      O1137   1.270       .  A
O1129      C1135   1.273       .  A
O1129     Ni1148   1.933       .  S
O1130      C1132   1.270       .  A
O1130     Ni1148   1.910       .  S
Ni1131     O2133   1.913       .  S
Ni1131     O1134   1.946       .  S
Ni1131     O1136   1.902       .  S
C1132      O1142   1.283       .  A
O1133      C1139   1.266       .  A
O1133     Ni1149   1.881       .  S
O1134      C1139   1.278       .  A
O1136      C1138   1.264       .  A
O1137     Ni1148   1.939       .  S
C1138      O1144   1.277       .  A
H1140      O1141   0.967       .  S
O1141     Ni1149   1.913       .  S
O1141     Ni1143   1.905       .  S
O1141     Ni1148   1.929       .  S
O1142     Ni1143   1.957       .  S
Ni1143     O1147   1.898       .  S
Ni1143     O1145   1.906       .  S
O1144     Ni1149   1.948       .  S
O1147      C2154   1.258       .  A
N1151      C1155   1.373       .  A
N1151      C1152   1.370       .  A
N1151      C1172   1.476       .  S
C1152      C1153   1.385       .  A
C1152      C1195   1.501       .  S
C1153      C1154   1.366       .  A
C1153      H1156   1.080       .  S
C1154      C1155   1.391       .  A
C1154      H1157   1.083       .  S
C1155      C1244   1.512       .  S
N1158      C2170   1.371       .  A
N1158      C2167   1.364       .  A
N1158      C1176   1.450       .  S
C1159      C1160   1.366       .  A
C1159      C1194   1.476       .  S
C1160      C1161   1.352       .  A
C1160      H1163   1.066       .  S
C1161      C1162   1.380       .  A
C1161      H1164   1.084       .  S
C1162      C1258   1.459       .  S
N1165      C1169   1.359   1_545  A
N1165      C1166   1.373   1_545  A
N1165      C1174   1.446       .  S
C1166      C1839   1.384       .  A
C1166      C1240   1.485   1_565  S
C1167      C1502   1.384       .  A
C1167      C1168   1.353       .  A
C1167      H1170   1.083       .  S
C1168      C1505   1.376       .  A
C1168      H1171   1.083       .  S
C1169      C1840   1.376       .  A
C1169      C1863   1.444       .  S
C1172      C1173   1.425       .  A
C1172      C1177   1.442       .  A
C1173      C1174   1.423       .  A
C1173      H1178   1.082       .  S
C1174      C1175   1.384       .  A
C1175      C1176   1.379       .  A
C1175      H1179   1.075       .  S
C1176      C1177   1.403       .  A
C1177      H1180   1.079       .  S
O1181      C1202   1.285       .  A
O1181     Ni1187   1.958       .  S
O1182      C1191   1.255       .  A
O1182     Ni1205   1.882       .  S
O1183     Ni1187   1.910       .  S
O1183     Ni1205   1.881       .  S
O1183     Ni1199   1.915       .  S
O1183      H1206   0.964       .  S
C1184      O1201   1.279       .  A
C1184      O1193   1.285       .  A
O1185      C1191   1.276       .  A
O1185     Ni1204   1.943       .  S
O1186      C1188   1.268       .  A
O1186     Ni1204   1.941       .  S
Ni1187     O1190   1.954       .  S
Ni1187     O1192   1.942       .  S
C1188      O1198   1.260       .  A
O1189      C1195   1.281       .  A
O1189     Ni1205   1.933       .  S
O1190      C1195   1.282       .  A
C1191      C1505   1.444       .  S
O1192      C1194   1.274       .  A
O1193     Ni1204   1.949       .  S
C1194      O1200   1.256       .  A
H1196      O1197   0.966       .  S
O1197     Ni1205   1.883       .  S
O1197     Ni1199   1.892       .  S
O1197     Ni1204   1.902       .  S
O1198     Ni1199   1.900       .  S
Ni1199     O1203   1.908       .  S
Ni1199     O1201   1.901       .  S
O1200     Ni1205   1.902       .  S
C1202      O1203   1.267       .  A
N1207      C1211   1.372       .  A
N1207      C1208   1.370       .  A
N1207      C1228   1.479       .  S
C1208      C1209   1.384       .  A
C1208      C1322   1.501       .  S
C1209      C1210   1.366       .  A
C1209      H1212   1.080       .  S
C1210      C1211   1.390       .  A
C1210      H1213   1.083       .  S
C1211      C1250   1.508       .  S
N1214      C1218   1.374       .  A
N1214      C1215   1.368       .  A
N1214      C1230   1.447       .  S
C1216      C2223   1.370       .  A
C1216      C1217   1.352       .  A
C1216      H1219   1.066       .  S
C1217      C2226   1.377       .  A
C1217      H1220   1.084       .  S
C1218      C1247   1.463       .  S
N1221      C1225   1.354       .  A
N1221      C1222   1.371       .  A
N1221      C1232   1.447       .  S
C1222      C1223   1.386       .  A
C1222      C1251   1.481       .  S
C1223      C1560   1.354       .  A
C1223      H1562   1.083       .  S
C1224      C1895   1.354       .  A
C1224      C1897   1.376       .  A
C1224      H1227   1.083       .  S
C1225      C1560   1.376       .  A
C1225      C1676   1.440       .  S
H1226      C1895   1.083       .  S
C1228      C1229   1.440       .  A
C1228      C1233   1.426       .  A
C1229      C1230   1.408       .  A
C1229      H1234   1.080       .  S
C1230      C1231   1.380       .  A
C1231      C1232   1.384       .  A
C1231      H1235   1.078       .  S
C1232      C1233   1.426       .  A
C1233      H1236   1.082       .  S
O1237      C1258   1.274       .  A
O1237     Ni1243   1.948       .  S
O1238      C1247   1.267       .  A
O1238     Ni1261   1.881       .  S
O1239     Ni1243   1.893       .  S
O1239     Ni1597   1.890       .  S
O1239     Ni1255   1.894       .  S
O1239      H1262   0.966       .  S
C1240      O1929   1.267   1_545  A
C1240      O1249   1.282       .  A
O1241      C1247   1.277       .  A
O1241     Ni1260   1.958       .  S
O1242      C1244   1.275       .  A
O1242     Ni1260   1.915       .  S
Ni1243     O1246   1.945       .  S
C1244      O1254   1.279       .  A
O1245      C1251   1.268       .  A
O1245     Ni1597   1.878       .  S
O1246      C1251   1.279       .  A
O1248      C1250   1.275       .  A
O1248     Ni2251   1.917       .  S
O1249     Ni2268   1.952       .  S
C1250      O1256   1.275       .  A
H1252      O2597   0.966       .  S
O1253     Ni1261   1.893       .  S
O1253     Ni1927   1.891   1_545  S
O1253     Ni1260   1.888       .  S
O1254     Ni1927   1.971   1_545  S
Ni1255     O1590   1.971       .  S
Ni1255     O1259   1.886       .  S
Ni1255     O1589   1.891       .  S
O1256     Ni2605   1.960       .  S
O1257      C1576   1.267       .  A
O1257     Ni2263   1.874       .  S
C1258      O1259   1.268       .  A
Ni1261     O1917   1.878       .  S
Ni1261     O1911   1.890   1_545  S
N1263      C1267   1.356       .  A
N1263      C1264   1.364       .  A
N1263      C2292   1.448       .  S
C1264      C1265   1.376       .  A
C1264      C1669   1.478       .  S
C1265      C1266   1.371       .  A
C1265      H1268   1.083       .  S
C1266      C1267   1.391       .  A
C1266      H1269   1.083       .  S
C1267      C1306   1.476       .  S
N1270      C1274   1.351       .  A
N1270      C1271   1.360       .  A
N1270      C1286   1.446       .  S
C1271      C1272   1.376       .  A
C1271      C1307   1.475       .  S
C1272      C1273   1.369       .  A
C1272      H1275   1.083       .  S
C1273      C1274   1.390       .  A
C1273      H1276   1.082       .  S
C1274      C1332   1.462       .  S
N1277      C1281   1.357       .  A
N1277      C1278   1.367       .  A
N1277      C1288   1.436       .  S
C1278      C1279   1.382       .  A
C1278      C1329   1.466       .  S
C1279      C1280   1.372       .  A
C1279      H1282   1.083       .  S
C1280      C1281   1.375       .  A
C1280      H1283   1.079       .  S
C1281      C1303   1.470       .  S
C1284      C1621   1.410       .  A
C1284      C1289   1.407       .  A
C1285      C1956   1.410       .  A
C1285      C1286   1.406       .  A
C1285      H1290   1.078       .  S
C1286      C1959   1.404       .  A
C1287      C1622   1.404       .  A
C1287      C1288   1.401       .  A
C1287      H1291   1.081       .  S
C1288      C1289   1.407       .  A
H1292      C2297   1.082       .  S
O1293      C1314   1.277       .  A
O1293     Ni1299   1.936       .  S
O1294      C1303   1.255       .  A
O1294     Ni1317   1.875       .  S
O1295     Ni1299   1.914       .  S
O1295     Ni1317   1.896       .  S
O1295     Ni1311   1.905       .  S
O1295      H1318   0.966       .  S
C1296      O1313   1.273       .  A
C1296      O1305   1.291       .  A
O1297      C1303   1.286       .  A
O1297     Ni1316   1.986       .  S
O1298      C1300   1.272       .  A
O1298     Ni1316   1.943       .  S
Ni1299     O1302   1.938       .  S
Ni1299     O1304   1.944       .  S
C1300      O1310   1.274       .  A
O1301      C1307   1.271       .  A
O1301     Ni1317   1.912       .  S
O1302      C1307   1.277       .  A
O1304      C1306   1.273       .  A
O1305     Ni1316   1.973       .  S
C1306      O1312   1.261       .  A
H1308      O1309   0.966       .  S
O1309     Ni1317   1.875       .  S
O1309     Ni1311   1.876       .  S
O1309     Ni1316   1.909       .  S
O1310     Ni1311   1.913       .  S
Ni1311     O1315   1.908       .  S
Ni1311     O1313   1.882       .  S
O1312     Ni1317   1.885       .  S
C1314      O1315   1.264       .  A
O1319      C1676   1.274       .  A
O1319     Ni1325   1.940       .  S
O1320      C2337   1.255       .  A
O1320     Ni1343   1.878       .  S
O1321     Ni1997   1.914       .  S
O1321     Ni1343   1.896       .  S
O1321     Ni1337   1.899       .  S
O1321      H1344   0.966       .  S
C1322      O1339   1.288       .  A
C1322      O1331   1.289       .  A
O1323      C1329   1.293       .  A
Ni1325     O1328   1.945       .  S
Ni1325     O1666   1.930       .  S
Ni1325     O1657   1.914       .  S
C1326      C2223   1.492       .  S
C1326      O2332   1.276       .  A
C1326      O1336   1.256       .  A
O1327      C1333   1.278       .  A
O1327     Ni1343   1.922       .  S
O1328      C1669   1.282       .  A
O1330      C1332   1.269       .  A
O1330     Ni1997   1.930       .  S
O1331     Ni1342   1.961       .  S
C1332      O1338   1.257       .  A
C1333      C1936   1.478       .  S
C1333      O2000   1.282       .  A
H1334      O1335   0.965       .  S
O1335     Ni1343   1.885       .  S
O1335     Ni1337   1.857       .  S
O1335     Ni1342   1.907       .  S
O1336     Ni1337   1.906       .  S
Ni1337     O1341   1.879       .  S
Ni1337     O1339   1.940       .  S
O1338     Ni1343   1.876       .  S
C1340      C1897   1.440       .  S
C1340      O1991   1.274   1_545  A
C1340      O1341   1.253       .  A
Ni1342     O2331   1.987       .  S
Ni1342     O2332   1.961       .  S
N1345      C1349   1.355       .  A
N1345      C1346   1.368       .  A
C1346      C1347   1.391       .  A
C1346      C1636   1.493       .  S
C1347      C1348   1.365       .  A
C1347      H1350   1.083       .  S
C1348      C1349   1.371       .  A
C1348      H1351   1.077       .  S
C1349      C1419   1.469       .  S
N1352      C1356   1.370       .  A
N1352      C1353   1.376       .  A
N1352      C1368   1.465       .  S
C1353      C1354   1.393       .  A
C1353      C1418   1.500       .  S
C1354      C1355   1.353       .  A
C1354      H1357   1.081       .  S
C1355      C1356   1.375       .  A
C1355      H1358   1.083       .  S
C1356      C1650   1.469       .  S
N1359      C1360   1.368       .  A
N1359      C1366   1.470       .  S
C1360      C1415   1.473       .  S
C1361      C1696   1.387       .  A
C1361      C1362   1.346       .  A
C1361      H1364   1.081       .  S
C1362      C1363   1.374       .  A
C1362      H1365   1.083       .  S
C1363      N1695   1.374       .  A
C1363      C1632   1.472       .  S
C1366      C1367   1.431       .  A
C1366      C1371   1.419       .  A
C1367      C1368   1.428       .  A
C1367      H1372   1.082       .  S
C1368      C1369   1.417       .  A
C1369      C1370   1.380       .  A
C1369      H1373   1.079       .  S
C1370      N2353   1.449       .  S
C1370      C1371   1.408       .  A
C1371      H1374   1.081       .  S
N1375      C1715   1.361       .  A
N1375      C1376   1.370       .  A
N1375      C1391   1.459       .  S
C1376      C1713   1.386       .  A
C1376      C1426   1.473       .  S
C1377      C1378   1.365       .  A
C1377      H1380   1.084       .  S
C1378      C1379   1.371       .  A
C1378      H1381   1.077       .  S
C1379      C1464   1.470       .  S
N1382      C1386   1.370       .  A
N1382      C1383   1.371       .  A
N1382      C1389   1.457       .  S
C1383      C1384   1.382       .  A
C1383      C1468   1.482       .  S
C1384      C1385   1.365       .  A
C1384      H1387   1.082       .  S
C1385      C1386   1.400       .  A
C1385      H1388   1.083       .  S
C1386      C1412   1.506       .  S
C1389      C1390   1.431       .  A
C1389      C1394   1.425       .  A
C1390      C1391   1.381       .  A
C1390      H1395   1.074       .  S
C1391      C1392   1.387       .  A
C1392      C1393   1.385       .  A
C1392      H1396   1.036       .  S
C1393      N1398   1.458       .  S
C1393      C1394   1.418       .  A
C1394      H1397   1.082       .  S
N1398      C1402   1.369       .  A
N1398      C1399   1.357       .  A
C1399      C1400   1.387       .  A
C1399      C1482   1.445       .  S
C1400      C1401   1.361       .  A
C1401      C1402   1.370       .  A
C1401      H1404   1.082       .  S
C1402      C1408   1.465       .  S
H1403      C2408   1.082       .  S
O1405      C1426   1.278       .  A
O1405     Ni1747   1.949   1_556  S
O1406      C1415   1.269       .  A
O1406     Ni1429   1.922       .  S
O1407     Ni1429   1.884   1_556  S
O1407      H1430   0.966       .  S
C1408      O1425   1.253       .  A
C1408      O1417   1.264       .  A
O1409      C1415   1.269   1_556  A
O1410      C1412   1.266       .  A
Ni1411     O1414   1.935       .  S
Ni1411     O2415   1.926   1_554  S
C1412      O1422   1.297       .  A
O1413      C1419   1.281       .  A
O1413     Ni1429   1.913       .  S
O1414      C2427   1.279       .  A
O1416      C1418   1.277       .  A
O1416     Ni1747   1.958       .  S
O1417     Ni1428   1.924       .  S
C1418      O2432   1.266       .  A
H1420      O1421   0.966       .  S
O1421     Ni1765   1.944   1_556  S
O1421     Ni1423   1.903       .  S
O1421     Ni1428   1.895       .  S
Ni1423     O1758   2.021       .  S
Ni1423     O1425   1.890       .  S
Ni1423     O1743   1.892       .  S
O1424     Ni1765   1.895       .  S
C1426      O1427   1.267       .  A
O1427     Ni2431   1.889       .  S
Ni1428     O1745   1.893       .  S
Ni1428     O1746   1.864       .  S
N1431      C1435   1.358       .  A
N1431      C1432   1.363       .  A
N1431      C1456   1.442       .  S
C1432      C1433   1.387       .  A
C1432      C1524   1.473       .  S
C1433      C1434   1.355       .  A
C1433      H1436   1.081       .  S
C1434      C1435   1.374       .  A
C1434      H1437   1.081       .  S
C1435      C1475   1.465       .  S
N1438      C1442   1.366       .  A
N1438      C1775   1.368       .  A
N1438      C1788   1.457       .  S
C1439      C1471   1.471       .  S
C1440      C1775   1.390       .  A
C1440      C1441   1.355       .  A
C1440      H1779   1.080       .  S
C1441      C1442   1.368       .  A
C1441      H1444   1.083       .  S
C1442      C1520   1.457       .  S
N1445      C2457   1.372       .  A
N1445      C1446   1.365       .  A
N1445      C2462   1.454       .  S
C1446      C1447   1.379       .  A
C1446      C1474   1.479       .  S
C1447      C2456   1.364       .  A
C1447      H1450   1.074       .  S
C1448      C1449   1.379       .  A
C1448      H1451   1.082       .  S
C1449      C1538   1.480       .  S
C1452      C1453   1.424       .  A
C1453      C1454   1.424       .  A
C1453      H1458   1.082       .  S
C1455      C2462   1.411       .  A
C1455      H1459   1.077       .  S
C1456      C1791   1.385       .  A
C1456      C2465   1.390       .  A
C1457      C1788   1.408       .  A
C1457      H1460   1.077       .  S
O1461      C1482   1.264       .  A
O1462      C1471   1.264       .  A
O1462     Ni1485   1.901       .  S
O1463     Ni1467   1.923       .  S
O1463     Ni1485   1.890       .  S
O1463     Ni1479   1.924       .  S
O1463      H1486   0.966       .  S
C1464      O1481   1.263       .  A
C1464      O1473   1.270       .  A
O1465      C1471   1.273       .  A
O1465     Ni1484   1.933       .  S
O1466      C1468   1.270       .  A
O1466     Ni1484   1.910       .  S
Ni1467     O2469   1.913       .  S
Ni1467     O1470   1.946       .  S
Ni1467     O1472   1.902       .  S
C1468      O1478   1.283       .  A
O1469      C1475   1.266       .  A
O1469     Ni1485   1.881       .  S
O1470      C1475   1.278       .  A
O1472      C1474   1.264       .  A
O1473     Ni1484   1.938       .  S
C1474      O1480   1.277       .  A
H1476      O1477   0.967       .  S
O1477     Ni1485   1.913       .  S
O1477     Ni1479   1.905       .  S
O1477     Ni1484   1.929       .  S
O1478     Ni1479   1.957       .  S
Ni1479     O1483   1.898       .  S
Ni1479     O1481   1.906       .  S
O1480     Ni1485   1.948       .  S
O1483      C2490   1.258       .  A
N1487      C1491   1.373       .  A
N1487      C1488   1.370       .  A
N1487      C1508   1.476       .  S
C1488      C1489   1.385       .  A
C1488      C1531   1.501       .  S
C1489      C1490   1.366       .  A
C1489      H1492   1.080       .  S
C1490      C1491   1.391       .  A
C1490      H1493   1.083       .  S
C1491      C1580   1.512       .  S
N1494      C2506   1.371       .  A
N1494      C2503   1.364       .  A
N1494      C1512   1.450       .  S
C1495      C1496   1.366       .  A
C1495      C1530   1.476       .  S
C1496      C1497   1.352       .  A
C1496      H1499   1.066       .  S
C1497      C1498   1.380       .  A
C1497      H1500   1.084       .  S
C1498      C1594   1.459       .  S
N1501      C1505   1.359       .  A
N1501      C1502   1.373       .  A
N1501      C1510   1.446       .  S
C1502      C1576   1.485       .  S
C1503      C1838   1.384       .  A
C1503      C1504   1.353       .  A
C1503      H1506   1.083       .  S
C1504      C1841   1.376       .  A
C1504      H1507   1.083       .  S
C1508      C1509   1.425       .  A
C1508      C1513   1.442       .  A
C1509      C1510   1.423       .  A
C1509      H1514   1.082       .  S
C1510      C1511   1.384       .  A
C1511      C1512   1.379       .  A
C1511      H1515   1.075       .  S
C1512      C1513   1.403       .  A
C1513      H1516   1.079       .  S
O1517      C1538   1.285       .  A
O1517     Ni1523   1.958       .  S
O1518      C1527   1.255       .  A
O1518     Ni1541   1.882       .  S
O1519     Ni1523   1.910       .  S
O1519     Ni1541   1.881       .  S
O1519     Ni1535   1.915       .  S
O1519      H1542   0.964       .  S
C1520      O1537   1.279       .  A
C1520      O1529   1.285       .  A
O1521      C1527   1.276       .  A
O1521     Ni1540   1.943       .  S
O1522      C1524   1.268       .  A
O1522     Ni1540   1.941       .  S
Ni1523     O1526   1.954       .  S
Ni1523     O1528   1.942       .  S
C1524      O1534   1.260       .  A
O1525      C1531   1.281       .  A
O1525     Ni1541   1.933       .  S
O1526      C1531   1.282       .  A
C1527      C1841   1.444       .  S
O1528      C1530   1.274       .  A
O1529     Ni1540   1.949       .  S
C1530      O1536   1.256       .  A
H1532      O1533   0.966       .  S
O1533     Ni1541   1.883       .  S
O1533     Ni1535   1.892       .  S
O1533     Ni1540   1.902       .  S
O1534     Ni1535   1.900       .  S
Ni1535     O1539   1.908       .  S
Ni1535     O1537   1.901       .  S
O1536     Ni1541   1.902       .  S
C1538      O1539   1.267       .  A
N1543      C1547   1.372       .  A
N1543      C1544   1.370       .  A
N1543      C1564   1.479       .  S
C1544      C1545   1.384       .  A
C1544      C1658   1.501       .  S
C1545      C1546   1.366       .  A
C1545      H1548   1.080       .  S
C1546      C1547   1.390       .  A
C1546      H1549   1.083       .  S
C1547      C1586   1.508       .  S
N1550      C1554   1.374       .  A
N1550      C1551   1.368       .  A
N1550      C1566   1.447       .  S
C1552      C2559   1.370       .  A
C1552      C1553   1.352       .  A
C1552      H1555   1.066       .  S
C1553      C2562   1.377       .  A
C1553      H1556   1.084       .  S
C1554      C1583   1.463       .  S
N1557      C1561   1.354       .  A
N1557      C1558   1.371       .  A
N1557      C1568   1.447       .  S
C1558      C1559   1.386       .  A
C1558      C1587   1.481       .  S
C1559      C1896   1.354       .  A
C1559      H1898   1.083       .  S
C1560      H1563   1.083       .  S
C1561      C1896   1.376       .  A
C1561      C2012   1.440       .  S
C1564      C1565   1.440       .  A
C1564      C1569   1.426       .  A
C1565      C1566   1.408       .  A
C1565      H1570   1.080       .  S
C1566      C1567   1.380       .  A
C1567      C1568   1.384       .  A
C1567      H1571   1.078       .  S
C1568      C1569   1.426       .  A
C1569      H1572   1.082       .  S
O1573      C1594   1.274       .  A
O1573     Ni1579   1.948       .  S
O1574      C1583   1.267       .  A
O1574     Ni1597   1.881       .  S
O1575     Ni1579   1.893       .  S
O1575     Ni1933   1.890       .  S
O1575     Ni1591   1.894       .  S
O1575      H1598   0.966       .  S
C1576      O1585   1.282       .  A
O1577      C1583   1.277       .  A
O1577     Ni1596   1.958       .  S
O1578      C1580   1.275       .  A
O1578     Ni1596   1.915       .  S
Ni1579     O1582   1.945       .  S
C1580      O1590   1.279       .  A
O1581      C1587   1.268       .  A
O1581     Ni1933   1.878       .  S
O1582      C1587   1.279       .  A
O1584      C1586   1.275       .  A
O1584     Ni2587   1.917       .  S
O1585     Ni2604   1.952       .  S
C1586      O1592   1.275       .  A
H1588      O2933   0.966       .  S
O1589     Ni1597   1.893       .  S
O1589     Ni1596   1.888       .  S
Ni1591     O1926   1.971       .  S
Ni1591     O1595   1.886       .  S
Ni1591     O1925   1.891       .  S
O1592     Ni2941   1.960       .  S
O1593      C1912   1.267       .  A
O1593     Ni2599   1.874       .  S
C1594      O1595   1.268       .  A
N1599      C1603   1.356       .  A
N1599      C1600   1.364       .  A
N1599      C2628   1.448       .  S
C1600      C1601   1.376       .  A
C1600      C2005   1.478       .  S
C1601      C1602   1.371       .  A
C1601      H1604   1.083       .  S
C1602      C1603   1.391       .  A
C1602      H1605   1.083       .  S
C1603      C1642   1.476       .  S
N1606      C1610   1.351       .  A
N1606      C1607   1.360       .  A
N1606      C1622   1.446       .  S
C1607      C1608   1.376       .  A
C1607      C1643   1.475       .  S
C1608      C1609   1.369       .  A
C1608      H1611   1.083       .  S
C1609      C1610   1.390       .  A
C1609      H1612   1.082       .  S
C1610      C1668   1.462       .  S
N1613      C1617   1.357       .  A
N1613      C1614   1.367       .  A
N1613      C1624   1.436       .  S
C1614      C1615   1.382       .  A
C1614      C1665   1.466       .  S
C1615      C1616   1.372       .  A
C1615      H1618   1.083       .  S
C1616      C1617   1.375       .  A
C1616      H1619   1.079       .  S
C1617      C1639   1.470       .  S
C1620      C1957   1.410       .  A
C1620      C1625   1.407       .  A
C1621      C1622   1.406       .  A
C1621      H1626   1.078       .  S
C1623      C1958   1.404       .  A
C1623      C1624   1.401       .  A
C1623      H1627   1.081       .  S
C1624      C1625   1.407       .  A
H1628      C2633   1.082       .  S
O1629      C1650   1.277       .  A
O1629     Ni1635   1.936       .  S
O1630      C1639   1.255       .  A
O1630     Ni1653   1.875       .  S
O1631     Ni1635   1.914       .  S
O1631     Ni1653   1.896       .  S
O1631     Ni1647   1.905       .  S
O1631      H1654   0.966       .  S
C1632      O1649   1.273       .  A
C1632      O1641   1.291       .  A
O1633      C1639   1.286       .  A
O1633     Ni1652   1.986       .  S
O1634      C1636   1.272       .  A
O1634     Ni1652   1.943       .  S
Ni1635     O1638   1.938       .  S
Ni1635     O1640   1.944       .  S
C1636      O1646   1.274       .  A
O1637      C1643   1.271       .  A
O1637     Ni1653   1.912       .  S
O1638      C1643   1.277       .  A
O1640      C1642   1.273       .  A
O1641     Ni1652   1.973       .  S
C1642      O1648   1.261       .  A
H1644      O1645   0.966       .  S
O1645     Ni1653   1.875       .  S
O1645     Ni1647   1.876       .  S
O1645     Ni1652   1.909       .  S
O1646     Ni1647   1.913       .  S
Ni1647     O1651   1.908       .  S
Ni1647     O1649   1.882       .  S
O1648     Ni1653   1.885       .  S
C1650      O1651   1.264       .  A
O1655      C2012   1.274       .  A
O1655     Ni1661   1.940       .  S
O1656      C2673   1.255       .  A
O1656     Ni1679   1.878       .  S
O1657     Ni1679   1.896       .  S
O1657     Ni1673   1.899       .  S
O1657      H1680   0.966       .  S
C1658      O1675   1.288       .  A
C1658      O1667   1.289       .  A
O1659      C1665   1.293       .  A
Ni1661     O1664   1.945       .  S
Ni1661     O2002   1.930       .  S
Ni1661     O1993   1.914       .  S
C1662      C2559   1.492       .  S
C1662      O2668   1.276       .  A
C1662      O1672   1.256       .  A
O1663      C1669   1.278       .  A
O1663     Ni1679   1.922       .  S
O1664      C2005   1.282       .  A
O1666      C1668   1.269       .  A
O1667     Ni1678   1.961       .  S
C1668      O1674   1.257       .  A
H1670      O1671   0.965       .  S
O1671     Ni1679   1.885       .  S
O1671     Ni1673   1.857       .  S
O1671     Ni1678   1.907       .  S
O1672     Ni1673   1.906       .  S
Ni1673     O1677   1.879       .  S
Ni1673     O1675   1.940       .  S
O1674     Ni1679   1.876       .  S
C1676      O1677   1.253       .  A
Ni1678     O2667   1.987       .  S
Ni1678     O2668   1.961       .  S
N1681      C1685   1.355       .  A
N1681      C1682   1.368       .  A
C1682      C1683   1.391       .  A
C1682      C1972   1.493       .  S
C1683      C1684   1.365       .  A
C1683      H1686   1.083       .  S
C1684      C1685   1.371       .  A
C1684      H1687   1.077       .  S
C1685      C1755   1.469       .  S
N1688      C1692   1.370       .  A
N1688      C1689   1.376       .  A
N1688      C1704   1.465       .  S
C1689      C1690   1.393       .  A
C1689      C1754   1.500       .  S
C1690      C1691   1.353       .  A
C1690      H1693   1.081       .  S
C1691      C1692   1.375       .  A
C1691      H1694   1.083       .  S
C1692      C1986   1.469       .  S
N1695      C1696   1.368       .  A
N1695      C1702   1.470       .  S
C1696      C1751   1.473       .  S
C1697      C1698   1.346       .  A
C1697      H1700   1.081       .  S
C1698      C1699   1.374       .  A
C1698      H1701   1.083       .  S
C1699      C1968   1.472       .  S
C1702      C1703   1.431       .  A
C1702      C1707   1.419       .  A
C1703      C1704   1.428       .  A
C1703      H1708   1.082       .  S
C1704      C1705   1.417       .  A
C1705      C1706   1.380       .  A
C1705      H1709   1.079       .  S
C1706      N2689   1.449       .  S
C1706      C1707   1.408       .  A
C1707      H1710   1.081       .  S
N1711      C1712   1.370       .  A
N1711      C1727   1.459       .  S
C1712      C1762   1.473       .  S
C1713      C1714   1.365       .  A
C1713      H1716   1.084       .  S
C1714      C1715   1.371       .  A
C1714      H1717   1.077       .  S
C1715      C1800   1.470       .  S
N1718      C1722   1.370       .  A
N1718      C1719   1.371       .  A
N1718      C1725   1.457       .  S
C1719      C1720   1.382       .  A
C1719      C1804   1.482       .  S
C1720      C1721   1.365       .  A
C1720      H1723   1.082       .  S
C1721      C1722   1.400       .  A
C1721      H1724   1.083       .  S
C1722      C1748   1.506       .  S
C1725      C1726   1.431       .  A
C1725      C1730   1.425       .  A
C1726      C1727   1.381       .  A
C1726      H1731   1.074       .  S
C1727      C1728   1.387       .  A
C1728      C1729   1.385       .  A
C1728      H1732   1.036       .  S
C1729      N1734   1.458       .  S
C1729      C1730   1.418       .  A
C1730      H1733   1.082       .  S
N1734      C1738   1.369       .  A
N1734      C1735   1.357       .  A
C1735      C1736   1.387       .  A
C1735      C1818   1.445       .  S
C1736      C1737   1.361       .  A
C1737      C1738   1.370       .  A
C1737      H1740   1.082       .  S
C1738      C1744   1.465       .  S
H1739      C2744   1.082       .  S
O1741      C1762   1.278       .  A
O1742      C1751   1.269       .  A
O1742     Ni1765   1.922       .  S
O1743     Ni1765   1.884   1_556  S
O1743      H1766   0.966       .  S
C1744      O1761   1.253       .  A
C1744      O1753   1.264       .  A
O1745      C1751   1.269   1_556  A
O1746      C1748   1.266       .  A
Ni1747     O1750   1.935       .  S
Ni1747     O2751   1.926   1_554  S
C1748      O1758   1.297       .  A
O1749      C1755   1.281       .  A
O1749     Ni1765   1.913       .  S
O1750      C2763   1.279       .  A
O1752      C1754   1.277       .  A
O1753     Ni1764   1.924       .  S
C1754      O2768   1.266       .  A
H1756      O1757   0.966       .  S
O1757     Ni1759   1.903       .  S
O1757     Ni1764   1.895       .  S
Ni1759     O1761   1.890       .  S
C1762      O1763   1.267       .  A
O1763     Ni2767   1.889       .  S
N1767      C1771   1.358       .  A
N1767      C1768   1.363       .  A
N1767      C1792   1.442       .  S
C1768      C1769   1.387       .  A
C1768      C1860   1.473       .  S
C1769      C1770   1.355       .  A
C1769      H1772   1.081       .  S
C1770      C1771   1.374       .  A
C1770      H1773   1.081       .  S
C1771      C1811   1.465       .  S
N1774      C1778   1.366       .  A
C1775      C1807   1.471       .  S
C1776      C1777   1.355       .  A
C1777      C1778   1.368       .  A
C1777      H1780   1.083       .  S
C1778      C1856   1.457       .  S
N1781      C2793   1.372       .  A
N1781      C1782   1.365       .  A
N1781      C2798   1.454       .  S
C1782      C1783   1.379       .  A
C1782      C1810   1.479       .  S
C1783      C2792   1.364       .  A
C1783      H1786   1.074       .  S
C1784      C1785   1.379       .  A
C1784      H1787   1.082       .  S
C1785      C1874   1.480       .  S
C1788      C1789   1.424       .  A
C1789      C1790   1.424       .  A
C1789      H1794   1.082       .  S
C1791      C2798   1.411       .  A
C1791      H1795   1.077       .  S
C1792      C2801   1.390       .  A
C1793      H1796   1.077       .  S
O1797      C1818   1.264       .  A
O1798      C1807   1.264       .  A
O1798     Ni1821   1.901       .  S
O1799     Ni1803   1.923       .  S
O1799     Ni1821   1.890       .  S
O1799     Ni1815   1.924       .  S
O1799      H1822   0.966       .  S
C1800      O1817   1.263       .  A
C1800      O1809   1.270       .  A
O1801      C1807   1.273       .  A
O1801     Ni1820   1.933       .  S
O1802      C1804   1.270       .  A
O1802     Ni1820   1.910       .  S
Ni1803     O2805   1.913       .  S
Ni1803     O1806   1.946       .  S
Ni1803     O1808   1.902       .  S
C1804      O1814   1.283       .  A
O1805      C1811   1.266       .  A
O1805     Ni1821   1.881       .  S
O1806      C1811   1.278       .  A
O1808      C1810   1.264       .  A
O1809     Ni1820   1.938       .  S
C1810      O1816   1.277       .  A
H1812      O1813   0.967       .  S
O1813     Ni1821   1.913       .  S
O1813     Ni1815   1.905       .  S
O1813     Ni1820   1.929       .  S
O1814     Ni1815   1.957       .  S
Ni1815     O1819   1.898       .  S
Ni1815     O1817   1.906       .  S
O1816     Ni1821   1.948       .  S
O1819      C2826   1.258       .  A
N1823      C1827   1.373       .  A
N1823      C1824   1.370       .  A
N1823      C1844   1.476       .  S
C1824      C1825   1.385       .  A
C1824      C1867   1.501       .  S
C1825      C1826   1.366       .  A
C1825      H1828   1.080       .  S
C1826      C1827   1.391       .  A
C1826      H1829   1.083       .  S
C1827      C1916   1.512       .  S
N1830      C2842   1.371       .  A
N1830      C2839   1.364       .  A
N1830      C1848   1.450       .  S
C1831      C1832   1.366       .  A
C1831      C1866   1.476       .  S
C1832      C1833   1.352       .  A
C1832      H1835   1.066       .  S
C1833      C1834   1.380       .  A
C1833      H1836   1.084       .  S
C1834      C1930   1.459       .  S
N1837      C1841   1.359       .  A
N1837      C1838   1.373       .  A
N1837      C1846   1.446       .  S
C1838      C1912   1.485       .  S
C1839      C1840   1.353       .  A
C1839      H1842   1.083       .  S
C1840      H1843   1.083       .  S
C1844      C1845   1.425       .  A
C1844      C1849   1.442       .  A
C1845      C1846   1.423       .  A
C1845      H1850   1.082       .  S
C1846      C1847   1.384       .  A
C1847      C1848   1.379       .  A
C1847      H1851   1.075       .  S
C1848      C1849   1.403       .  A
C1849      H1852   1.079       .  S
O1853      C1874   1.285       .  A
O1853     Ni1859   1.958       .  S
O1854      C1863   1.255       .  A
O1854     Ni1877   1.882       .  S
O1855     Ni1859   1.910       .  S
O1855     Ni1877   1.881       .  S
O1855     Ni1871   1.915       .  S
O1855      H1878   0.964       .  S
C1856      O1873   1.279       .  A
C1856      O1865   1.285       .  A
O1857      C1863   1.276       .  A
O1857     Ni1876   1.943       .  S
O1858      C1860   1.268       .  A
O1858     Ni1876   1.941       .  S
Ni1859     O1862   1.954       .  S
Ni1859     O1864   1.942       .  S
C1860      O1870   1.260       .  A
O1861      C1867   1.281       .  A
O1861     Ni1877   1.933       .  S
O1862      C1867   1.282       .  A
O1864      C1866   1.274       .  A
O1865     Ni1876   1.949       .  S
C1866      O1872   1.256       .  A
H1868      O1869   0.966       .  S
O1869     Ni1877   1.883       .  S
O1869     Ni1871   1.892       .  S
O1869     Ni1876   1.902       .  S
O1870     Ni1871   1.900       .  S
Ni1871     O1875   1.908       .  S
Ni1871     O1873   1.901       .  S
O1872     Ni1877   1.902       .  S
C1874      O1875   1.267       .  A
N1879      C1883   1.372       .  A
N1879      C1880   1.370       .  A
N1879      C1900   1.479       .  S
C1880      C1881   1.384       .  A
C1880      C1994   1.501       .  S
C1881      C1882   1.366       .  A
C1881      H1884   1.080       .  S
C1882      C1883   1.390       .  A
C1882      H1885   1.083       .  S
C1883      C1922   1.508       .  S
N1886      C1890   1.374       .  A
N1886      C1887   1.368       .  A
N1886      C1902   1.447       .  S
C1888      C2895   1.370       .  A
C1888      C1889   1.352       .  A
C1888      H1891   1.066       .  S
C1889      C2898   1.377       .  A
C1889      H1892   1.084       .  S
C1890      C1919   1.463       .  S
N1893      C1897   1.354   1_565  A
N1893      C1894   1.371   1_565  A
N1893      C1904   1.447       .  S
C1894      C1895   1.386       .  A
C1894      C1923   1.481   1_545  S
C1896      H1899   1.083       .  S
C1900      C1901   1.440       .  A
C1900      C1905   1.426       .  A
C1901      C1902   1.408       .  A
C1901      H1906   1.080       .  S
C1902      C1903   1.380       .  A
C1903      C1904   1.384       .  A
C1903      H1907   1.078       .  S
C1904      C1905   1.426       .  A
C1905      H1908   1.082       .  S
O1909      C1930   1.274       .  A
O1909     Ni1915   1.948       .  S
O1910      C1919   1.267       .  A
O1910     Ni1933   1.881       .  S
O1911     Ni1915   1.893       .  S
O1911     Ni1927   1.894       .  S
O1911      H1934   0.966       .  S
C1912      O1921   1.282       .  A
O1913      C1919   1.277       .  A
O1913     Ni1932   1.958       .  S
O1914      C1916   1.275       .  A
O1914     Ni1932   1.915       .  S
Ni1915     O1918   1.945       .  S
C1916      O1926   1.279       .  A
O1917      C1923   1.268   1_545  A
O1918      C1923   1.279       .  A
O1920      C1922   1.275       .  A
O1920     Ni2923   1.917       .  S
O1921     Ni2940   1.952       .  S
C1922      O1928   1.275       .  A
H1924      O2261   0.966   1_565  S
O1925     Ni1933   1.893       .  S
O1925     Ni1932   1.888       .  S
Ni1927     O1931   1.886       .  S
O1928     Ni2269   1.960   1_565  S
O1929     Ni2935   1.874       .  S
C1930      O1931   1.268       .  A
N1935      C1939   1.356   1_545  A
N1935      C1936   1.364       .  A
N1935      C2964   1.448       .  S
C1936      C1937   1.376       .  A
C1937      C1938   1.371       .  A
C1937      H1940   1.083       .  S
C1938      C1939   1.391   1_545  A
C1938      H1941   1.083       .  S
C1939      C1978   1.476       .  S
N1942      C1946   1.351       .  A
N1942      C1943   1.360       .  A
N1942      C1958   1.446       .  S
C1943      C1944   1.376       .  A
C1943      C1979   1.475       .  S
C1944      C1945   1.369       .  A
C1944      H1947   1.083       .  S
C1945      C1946   1.390       .  A
C1945      H1948   1.082       .  S
C1946      C2004   1.462       .  S
N1949      C1953   1.357       .  A
N1949      C1950   1.367       .  A
N1949      C1960   1.436       .  S
C1950      C1951   1.382       .  A
C1950      C2001   1.466       .  S
C1951      C1952   1.372       .  A
C1951      H1954   1.083       .  S
C1952      C1953   1.375       .  A
C1952      H1955   1.079       .  S
C1953      C1975   1.470       .  S
C1956      C1961   1.407   1_545  A
C1957      C1958   1.406       .  A
C1957      H1962   1.078       .  S
C1959      C1960   1.401   1_545  A
C1959      H1963   1.081       .  S
C1960      C1961   1.407       .  A
H1964      C2969   1.082       .  S
O1965      C1986   1.277       .  A
O1965     Ni1971   1.936       .  S
O1966      C1975   1.255       .  A
O1966     Ni1989   1.875       .  S
O1967     Ni1971   1.914       .  S
O1967     Ni1989   1.896       .  S
O1967     Ni1983   1.905       .  S
O1967      H1990   0.966       .  S
C1968      O1985   1.273       .  A
C1968      O1977   1.291       .  A
O1969      C1975   1.286       .  A
O1969     Ni1988   1.986       .  S
O1970      C1972   1.272       .  A
O1970     Ni1988   1.943       .  S
Ni1971     O1974   1.938       .  S
Ni1971     O1976   1.944       .  S
C1972      O1982   1.274       .  A
O1973      C1979   1.271       .  A
O1973     Ni1989   1.912       .  S
O1974      C1979   1.277       .  A
O1976      C1978   1.273       .  A
O1977     Ni1988   1.973       .  S
C1978      O1984   1.261       .  A
H1980      O1981   0.966       .  S
O1981     Ni1989   1.875       .  S
O1981     Ni1983   1.876       .  S
O1981     Ni1988   1.909       .  S
O1982     Ni1983   1.913       .  S
Ni1983     O1987   1.908       .  S
Ni1983     O1985   1.882       .  S
O1984     Ni1989   1.885       .  S
C1986      O1987   1.264       .  A
O1991     Ni1997   1.940   1_565  S
O1992      C3009   1.255       .  A
O1992     Ni2015   1.878       .  S
O1993     Ni2015   1.896       .  S
O1993     Ni2009   1.899       .  S
O1993      H2016   0.966       .  S
C1994      O2011   1.288       .  A
C1994      O2003   1.289       .  A
O1995      C2001   1.293       .  A
Ni1997     O2000   1.945       .  S
C1998      C2895   1.492       .  S
C1998      O3004   1.276       .  A
C1998      O2008   1.256       .  A
O1999      C2005   1.278       .  A
O1999     Ni2015   1.922       .  S
O2002      C2004   1.269       .  A
O2003     Ni2014   1.961       .  S
C2004      O2010   1.257       .  A
H2006      O2007   0.965       .  S
O2007     Ni2015   1.885       .  S
O2007     Ni2009   1.857       .  S
O2007     Ni2014   1.907       .  S
O2008     Ni2009   1.906       .  S
Ni2009     O2013   1.879       .  S
Ni2009     O2011   1.940       .  S
O2010     Ni2015   1.876       .  S
C2012      O2013   1.253       .  A
Ni2014     O3003   1.987       .  S
Ni2014     O3004   1.961       .  S
N2017      C2021   1.355       .  A
N2017      C2018   1.368       .  A
C2018      C2019   1.391       .  A
C2018      C2308   1.493       .  S
C2019      C2020   1.365       .  A
C2019      H2022   1.083       .  S
C2020      C2021   1.371       .  A
C2020      H2023   1.077       .  S
C2021      C2091   1.469       .  S
N2024      C2028   1.370       .  A
N2024      C2025   1.376       .  A
N2024      C2040   1.465       .  S
C2025      C2026   1.393   1_655  A
C2025      C2090   1.500       .  S
C2026      C2027   1.353       .  A
C2026      H2029   1.081       .  S
C2027      C2028   1.375   1_455  A
C2027      H2030   1.083       .  S
C2028      C2322   1.469       .  S
N2031      C2707   1.374   1_545  A
N2031      C2032   1.368       .  A
N2031      C2038   1.470       .  S
C2032      C2705   1.387   1_545  A
C2032      C2087   1.473       .  S
C2033      C2368   1.387       .  A
C2033      C2034   1.346       .  A
C2033      H2036   1.081       .  S
C2034      C2035   1.374       .  A
C2034      H2037   1.083       .  S
C2035      N2367   1.374       .  A
C2035      C2304   1.472       .  S
C2038      C2039   1.431       .  A
C2038      C2043   1.419       .  A
C2039      C2040   1.428       .  A
C2039      H2044   1.082       .  S
C2040      C2041   1.417       .  A
C2041      C2042   1.380       .  A
C2041      H2045   1.079   1_655  S
C2042      C2043   1.408       .  A
C2043      H2046   1.081       .  S
N2047      C2387   1.361       .  A
N2047      C2048   1.370       .  A
N2047      C2063   1.459       .  S
C2048      C2385   1.386       .  A
C2048      C2098   1.473       .  S
C2049      C2720   1.386   1_545  A
C2049      C2050   1.365       .  A
C2049      H2052   1.084       .  S
C2050      C2051   1.371       .  A
C2050      H2053   1.077       .  S
C2051      N2719   1.361   1_545  A
C2051      C2136   1.470       .  S
N2054      C2058   1.370       .  A
N2054      C2055   1.371       .  A
N2054      C2061   1.457       .  S
C2055      C2056   1.382       .  A
C2055      C2140   1.482       .  S
C2056      C2057   1.365       .  A
C2056      H2059   1.082       .  S
C2057      C2058   1.400       .  A
C2057      H2060   1.083       .  S
C2058      C2084   1.506       .  S
C2061      C2062   1.431       .  A
C2061      C2066   1.425       .  A
C2062      C2063   1.381       .  A
C2062      H2067   1.074       .  S
C2063      C2064   1.387       .  A
C2064      C2065   1.385       .  A
C2064      H2068   1.036       .  S
C2065      N2070   1.458       .  S
C2065      C2066   1.418       .  A
C2066      H2069   1.082       .  S
N2070      C2074   1.369       .  A
N2070      C2071   1.357       .  A
C2071      C2072   1.387       .  A
C2071      C2154   1.445       .  S
C2072      C2073   1.361       .  A
C2073      C2074   1.370       .  A
C2073      H2076   1.082       .  S
C2074      C2080   1.465       .  S
O2077      C2098   1.278       .  A
O2077     Ni2419   1.949   1_556  S
O2078      C2087   1.269       .  A
O2078     Ni2101   1.922       .  S
O2079     Ni2101   1.884   1_556  S
O2079     Ni2767   1.892   1_545  S
O2079      H2102   0.966       .  S
C2080      O2097   1.253       .  A
C2080      O2089   1.264       .  A
O2081      C2087   1.269   1_566  A
O2081     Ni2772   1.893       .  S
O2082      C2084   1.266       .  A
O2082     Ni2772   1.864   1_545  S
Ni2083     O2749   1.949   1_554  S
Ni2083     O2086   1.935   1_565  S
Ni2083     O2760   1.958       .  S
C2084      O2094   1.297       .  A
O2085      C2091   1.281       .  A
O2085     Ni2101   1.913       .  S
O2088      C2090   1.277       .  A
O2088     Ni2419   1.958       .  S
O2089     Ni2100   1.924       .  S
H2092      O2093   0.966       .  S
O2093     Ni2437   1.944   1_556  S
O2093     Ni2095   1.903       .  S
O2093     Ni2100   1.895       .  S
O2094     Ni2767   2.021   1_545  S
Ni2095     O2430   2.021       .  S
Ni2095     O2097   1.890       .  S
Ni2095     O2415   1.892       .  S
O2096     Ni2437   1.895       .  S
C2098      O2099   1.267       .  A
Ni2100     O2417   1.893       .  S
Ni2100     O2418   1.864       .  S
Ni2101     O2768   1.895   1_545  S
Ni2101     O2765   1.944   1_544  S
N2103      C2107   1.358       .  A
N2103      C2104   1.363       .  A
N2103      C2128   1.442       .  S
C2104      C2105   1.387       .  A
C2104      C2196   1.473       .  S
C2105      C2106   1.355       .  A
C2105      H2108   1.081       .  S
C2106      C2107   1.374       .  A
C2106      H2109   1.081       .  S
C2107      C2147   1.465       .  S
N2110      C2114   1.366       .  A
N2110      C2447   1.368       .  A
N2110      C2460   1.457       .  S
C2111      N2782   1.368       .  A
C2111      C2784   1.390       .  A
C2111      C2143   1.471   1_565  S
C2112      C2447   1.390       .  A
C2112      C2113   1.355       .  A
C2112      H2451   1.080       .  S
C2113      C2114   1.368       .  A
C2113      H2116   1.083       .  S
C2114      C2192   1.457       .  S
H2115      C2784   1.080       .  S
N2117      C2118   1.365       .  A
C2118      C2119   1.379       .  A
C2118      C2146   1.479       .  S
C2119      H2122   1.074       .  S
C2120      C2121   1.379       .  A
C2120      H2123   1.082       .  S
C2121      C2210   1.480       .  S
C2124      N2782   1.457       .  S
C2124      C2125   1.424   1_565  A
C2124      C2801   1.408       .  A
C2125      C2126   1.424       .  A
C2125      H2130   1.082       .  S
C2127      C2800   1.385       .  A
C2127      H2131   1.077       .  S
C2128      C2463   1.385       .  A
C2129      C2460   1.408       .  A
C2129      H2132   1.077       .  S
O2133      C2154   1.264       .  A
O2134      C2143   1.264       .  A
O2134     Ni2157   1.901       .  S
O2135     Ni2139   1.923       .  S
O2135     Ni2157   1.890       .  S
O2135     Ni2151   1.924       .  S
O2135      H2158   0.966       .  S
C2136      O2153   1.263       .  A
C2136      O2145   1.270       .  A
O2137      C2143   1.273       .  A
O2137     Ni2156   1.933       .  S
O2138      C2140   1.270       .  A
O2138     Ni2156   1.910       .  S
Ni2139     O2142   1.946       .  S
Ni2139     O2144   1.902       .  S
C2140      O2150   1.283       .  A
O2141      C2147   1.266       .  A
O2141     Ni2157   1.881       .  S
O2142      C2147   1.278       .  A
O2144      C2146   1.264       .  A
O2145     Ni2156   1.939       .  S
C2146      O2152   1.277       .  A
H2148      O2149   0.967       .  S
O2149     Ni2157   1.913       .  S
O2149     Ni2151   1.905       .  S
O2149     Ni2156   1.929       .  S
O2150     Ni2151   1.957       .  S
Ni2151     O2155   1.898       .  S
Ni2151     O2153   1.906       .  S
O2152     Ni2157   1.948       .  S
N2159      C2163   1.373       .  A
N2159      C2160   1.370       .  A
N2159      C2180   1.476       .  S
C2160      C2161   1.385       .  A
C2160      C2203   1.501       .  S
C2161      C2162   1.366       .  A
C2161      H2164   1.080       .  S
C2162      C2163   1.391       .  A
C2162      H2165   1.083       .  S
C2163      C2252   1.512       .  S
N2166      C2184   1.450   1_455  S
C2167      C2168   1.366       .  A
C2167      C2202   1.476       .  S
C2168      C2169   1.352       .  A
C2168      H2171   1.066       .  S
C2169      C2170   1.380       .  A
C2169      H2172   1.084       .  S
C2170      C2266   1.459       .  S
N2173      C2177   1.359   1_545  A
N2173      C2174   1.373   1_545  A
N2173      C2182   1.446       .  S
C2174      C2847   1.384       .  A
C2174      C2248   1.485   1_565  S
C2175      C2510   1.384       .  A
C2175      C2176   1.353       .  A
C2175      H2178   1.083       .  S
C2176      C2513   1.376       .  A
C2176      H2179   1.083       .  S
C2177      C2848   1.376       .  A
C2177      C2871   1.444       .  S
C2180      C2181   1.425       .  A
C2180      C2185   1.442       .  A
C2181      C2182   1.423       .  A
C2181      H2186   1.082       .  S
C2182      C2183   1.384       .  A
C2183      C2184   1.379       .  A
C2183      H2187   1.075       .  S
C2184      C2185   1.403       .  A
C2185      H2188   1.079       .  S
O2189      C2210   1.285       .  A
O2189     Ni2195   1.958       .  S
O2190      C2199   1.255       .  A
O2190     Ni2213   1.882       .  S
O2191     Ni2195   1.910       .  S
O2191     Ni2213   1.881       .  S
O2191     Ni2207   1.915       .  S
O2191      H2214   0.964       .  S
C2192      O2209   1.279       .  A
C2192      O2201   1.285       .  A
O2193      C2199   1.276       .  A
O2193     Ni2212   1.943       .  S
O2194      C2196   1.268       .  A
O2194     Ni2212   1.941       .  S
Ni2195     O2198   1.954       .  S
Ni2195     O2200   1.942       .  S
C2196      O2206   1.260       .  A
O2197      C2203   1.281       .  A
O2197     Ni2213   1.933       .  S
O2198      C2203   1.282       .  A
C2199      C2513   1.444       .  S
O2200      C2202   1.274       .  A
O2201     Ni2212   1.949       .  S
C2202      O2208   1.256       .  A
H2204      O2205   0.966       .  S
O2205     Ni2213   1.883       .  S
O2205     Ni2207   1.892       .  S
O2205     Ni2212   1.902       .  S
O2206     Ni2207   1.900       .  S
Ni2207     O2211   1.908       .  S
Ni2207     O2209   1.901       .  S
O2208     Ni2213   1.902       .  S
C2210      O2211   1.267       .  A
N2215      C2219   1.372       .  A
N2215      C2216   1.370       .  A
N2215      C2236   1.479       .  S
C2216      C2217   1.384       .  A
C2216      C2330   1.501       .  S
C2217      C2218   1.366       .  A
C2217      H2220   1.080       .  S
C2218      C2219   1.390       .  A
C2218      H2221   1.083       .  S
C2219      C2258   1.508       .  S
N2222      C2226   1.374       .  A
N2222      C2223   1.368       .  A
N2222      C2238   1.447       .  S
C2224      C2225   1.352       .  A
C2224      H2227   1.066       .  S
C2225      H2228   1.084       .  S
C2226      C2255   1.463       .  S
N2229      C2233   1.354       .  A
N2229      C2230   1.371       .  A
N2229      C2240   1.447       .  S
C2230      C2231   1.386       .  A
C2230      C2259   1.481       .  S
C2231      C2568   1.354       .  A
C2231      H2570   1.083       .  S
C2232      C2903   1.354       .  A
C2232      C2905   1.376       .  A
C2232      H2235   1.083       .  S
C2233      C2568   1.376       .  A
C2233      C2684   1.440       .  S
H2234      C2903   1.083       .  S
C2236      C2237   1.440       .  A
C2236      C2241   1.426       .  A
C2237      C2238   1.408       .  A
C2237      H2242   1.080       .  S
C2238      C2239   1.380       .  A
C2239      C2240   1.384       .  A
C2239      H2243   1.078       .  S
C2240      C2241   1.426       .  A
C2241      H2244   1.082       .  S
O2245      C2266   1.274       .  A
O2245     Ni2251   1.948       .  S
O2246      C2255   1.267       .  A
O2246     Ni2269   1.881       .  S
O2247     Ni2251   1.893       .  S
O2247     Ni2605   1.890       .  S
O2247     Ni2263   1.894       .  S
O2247      H2270   0.966       .  S
C2248      O2937   1.267   1_545  A
C2248      O2257   1.282       .  A
O2249      C2255   1.277       .  A
O2249     Ni2268   1.958       .  S
O2250      C2252   1.275       .  A
O2250     Ni2268   1.915       .  S
Ni2251     O2254   1.945       .  S
C2252      O2262   1.279       .  A
O2253      C2259   1.268       .  A
O2253     Ni2605   1.878       .  S
O2254      C2259   1.279       .  A
O2256      C2258   1.275       .  A
C2258      O2264   1.275       .  A
O2261     Ni2269   1.893       .  S
O2261     Ni2935   1.891   1_545  S
O2261     Ni2268   1.888       .  S
O2262     Ni2935   1.971   1_545  S
Ni2263     O2598   1.971       .  S
Ni2263     O2267   1.886       .  S
Ni2263     O2597   1.891       .  S
O2265      C2584   1.267       .  A
C2266      O2267   1.268       .  A
Ni2269     O2925   1.878       .  S
Ni2269     O2919   1.890   1_545  S
N2271      C2275   1.356       .  A
N2271      C2272   1.364       .  A
C2272      C2273   1.376       .  A
C2272      C2677   1.478       .  S
C2273      C2274   1.371       .  A
C2273      H2276   1.083       .  S
C2274      C2275   1.391       .  A
C2274      H2277   1.083       .  S
C2275      C2314   1.476       .  S
N2278      C2282   1.351       .  A
N2278      C2279   1.360       .  A
N2278      C2294   1.446       .  S
C2279      C2280   1.376       .  A
C2279      C2315   1.475       .  S
C2280      C2281   1.369       .  A
C2280      H2283   1.083       .  S
C2281      C2282   1.390       .  A
C2281      H2284   1.082       .  S
C2282      C2340   1.462       .  S
N2285      C2289   1.357       .  A
N2285      C2286   1.367       .  A
N2285      C2296   1.435       .  S
C2286      C2287   1.382       .  A
C2286      C2337   1.466       .  S
C2287      C2288   1.372       .  A
C2287      H2290   1.083       .  S
C2288      C2289   1.375       .  A
C2288      H2291   1.079       .  S
C2289      C2311   1.470       .  S
C2292      C2629   1.410       .  A
C2292      C2297   1.407       .  A
C2293      C2964   1.410       .  A
C2293      C2294   1.406       .  A
C2293      H2298   1.078       .  S
C2294      C2967   1.404       .  A
C2295      C2630   1.404       .  A
C2295      C2296   1.401       .  A
C2295      H2299   1.081       .  S
C2296      C2297   1.407       .  A
O2301      C2322   1.277       .  A
O2301     Ni2307   1.936       .  S
O2302      C2311   1.255       .  A
O2302     Ni2325   1.875       .  S
O2303     Ni2307   1.914       .  S
O2303     Ni2325   1.896       .  S
O2303     Ni2319   1.905       .  S
O2303      H2326   0.966       .  S
C2304      O2321   1.273       .  A
C2304      O2313   1.291       .  A
O2305      C2311   1.286       .  A
O2305     Ni2324   1.986       .  S
O2306      C2308   1.272       .  A
O2306     Ni2324   1.943       .  S
Ni2307     O2310   1.938       .  S
Ni2307     O2312   1.944       .  S
C2308      O2318   1.274       .  A
O2309      C2315   1.271       .  A
O2309     Ni2325   1.912       .  S
O2310      C2315   1.277       .  A
O2312      C2314   1.273       .  A
O2313     Ni2324   1.973       .  S
C2314      O2320   1.261       .  A
H2316      O2317   0.966       .  S
O2317     Ni2325   1.875       .  S
O2317     Ni2319   1.876       .  S
O2317     Ni2324   1.909       .  S
O2318     Ni2319   1.913       .  S
Ni2319     O2323   1.908       .  S
Ni2319     O2321   1.882       .  S
O2320     Ni2325   1.885       .  S
C2322      O2323   1.264       .  A
O2327      C2684   1.274       .  A
O2327     Ni2333   1.940       .  S
O2328     Ni2351   1.878       .  S
O2329     Ni3005   1.914       .  S
O2329     Ni2351   1.896       .  S
O2329     Ni2345   1.899       .  S
O2329      H2352   0.966       .  S
C2330      O2347   1.288       .  A
C2330      O2339   1.289       .  A
O2331      C2337   1.293       .  A
Ni2333     O2336   1.945       .  S
Ni2333     O2674   1.930       .  S
Ni2333     O2665   1.914       .  S
C2334      O2344   1.256   1_455  A
O2335      C2341   1.278       .  A
O2335     Ni2351   1.922       .  S
O2336      C2677   1.282       .  A
O2338      C2340   1.269       .  A
O2338     Ni3005   1.930       .  S
O2339     Ni2350   1.961       .  S
C2340      O2346   1.257       .  A
C2341      C2944   1.478       .  S
C2341      O3008   1.282       .  A
H2342      O2343   0.965       .  S
O2343     Ni2351   1.885       .  S
O2343     Ni2345   1.857       .  S
O2343     Ni2350   1.907       .  S
O2344     Ni2345   1.906       .  S
Ni2345     O2349   1.879       .  S
Ni2345     O2347   1.940       .  S
O2346     Ni2351   1.876       .  S
C2348      C2905   1.440       .  S
C2348      O2999   1.274   1_545  A
C2348      O2349   1.253       .  A
N2353      C2357   1.355       .  A
N2353      C2354   1.368       .  A
C2354      C2355   1.391       .  A
C2354      C2644   1.493       .  S
C2355      C2356   1.365       .  A
C2355      H2358   1.083       .  S
C2356      C2357   1.371       .  A
C2356      H2359   1.077       .  S
C2357      C2427   1.469       .  S
N2360      C2364   1.370       .  A
N2360      C2361   1.376       .  A
N2360      C2376   1.465       .  S
C2361      C2362   1.393   1_655  A
C2361      C2426   1.500       .  S
C2362      C2363   1.353       .  A
C2362      H2365   1.081       .  S
C2363      C2364   1.375   1_455  A
C2363      H2366   1.083       .  S
C2364      C2658   1.469       .  S
N2367      C2368   1.368       .  A
N2367      C2374   1.470       .  S
C2368      C2423   1.473       .  S
C2369      C2704   1.387       .  A
C2369      C2370   1.346       .  A
C2369      H2372   1.081       .  S
C2370      C2371   1.374       .  A
C2370      H2373   1.083       .  S
C2371      N2703   1.374       .  A
C2371      C2640   1.472       .  S
C2374      C2375   1.431       .  A
C2374      C2379   1.419       .  A
C2375      C2376   1.428       .  A
C2375      H2380   1.082       .  S
C2376      C2377   1.417       .  A
C2377      C2378   1.380       .  A
C2377      H2381   1.079   1_655  S
C2378      C2379   1.408       .  A
C2379      H2382   1.081       .  S
N2383      C2723   1.361       .  A
N2383      C2384   1.370       .  A
N2383      C2399   1.459       .  S
C2384      C2721   1.386       .  A
C2384      C2434   1.473       .  S
C2385      C2386   1.365       .  A
C2385      H2388   1.084       .  S
C2386      C2387   1.371       .  A
C2386      H2389   1.077       .  S
C2387      C2472   1.470       .  S
N2390      C2394   1.370       .  A
N2390      C2391   1.371       .  A
N2390      C2397   1.457       .  S
C2391      C2392   1.382       .  A
C2391      C2476   1.482       .  S
C2392      C2393   1.365       .  A
C2392      H2395   1.082       .  S
C2393      C2394   1.400       .  A
C2393      H2396   1.083       .  S
C2394      C2420   1.506       .  S
C2397      C2398   1.431       .  A
C2397      C2402   1.425       .  A
C2398      C2399   1.381       .  A
C2398      H2403   1.074       .  S
C2399      C2400   1.387       .  A
C2400      C2401   1.385       .  A
C2400      H2404   1.036       .  S
C2401      N2406   1.458       .  S
C2401      C2402   1.418       .  A
C2402      H2405   1.082       .  S
N2406      C2410   1.369       .  A
N2406      C2407   1.357       .  A
C2407      C2408   1.387       .  A
C2407      C2490   1.445       .  S
C2408      C2409   1.361       .  A
C2409      C2410   1.370       .  A
C2409      H2412   1.082       .  S
C2410      C2416   1.465       .  S
O2413      C2434   1.278       .  A
O2413     Ni2755   1.949   1_556  S
O2414      C2423   1.269       .  A
O2414     Ni2437   1.922       .  S
O2415     Ni2437   1.884   1_556  S
O2415      H2438   0.966       .  S
C2416      O2433   1.253       .  A
C2416      O2425   1.264       .  A
O2417      C2423   1.269   1_556  A
O2418      C2420   1.266       .  A
Ni2419     O2422   1.935       .  S
C2420      O2430   1.297       .  A
O2421      C2427   1.281       .  A
O2421     Ni2437   1.913       .  S
O2424      C2426   1.277       .  A
O2424     Ni2755   1.958       .  S
O2425     Ni2436   1.924       .  S
H2428      O2429   0.966       .  S
O2429     Ni2773   1.944   1_556  S
O2429     Ni2431   1.903       .  S
O2429     Ni2436   1.895       .  S
Ni2431     O2766   2.021       .  S
Ni2431     O2433   1.890       .  S
Ni2431     O2751   1.892       .  S
O2432     Ni2773   1.895       .  S
C2434      O2435   1.267       .  A
Ni2436     O2753   1.893       .  S
Ni2436     O2754   1.864       .  S
N2439      C2443   1.358       .  A
N2439      C2440   1.363       .  A
N2439      C2464   1.442       .  S
C2440      C2441   1.387       .  A
C2440      C2532   1.473       .  S
C2441      C2442   1.355       .  A
C2441      H2444   1.081       .  S
C2442      C2443   1.374       .  A
C2442      H2445   1.081       .  S
C2443      C2483   1.465       .  S
N2446      C2450   1.366       .  A
N2446      C2783   1.368       .  A
N2446      C2796   1.457       .  S
C2447      C2479   1.471       .  S
C2448      C2783   1.390       .  A
C2448      C2449   1.355       .  A
C2448      H2787   1.080       .  S
C2449      C2450   1.368       .  A
C2449      H2452   1.083       .  S
C2450      C2528   1.457       .  S
N2453      C2454   1.365       .  A
C2454      C2455   1.379       .  A
C2454      C2482   1.479       .  S
C2455      H2458   1.074       .  S
C2456      C2457   1.379       .  A
C2456      H2459   1.082       .  S
C2457      C2546   1.480       .  S
C2460      C2461   1.424       .  A
C2461      C2462   1.424       .  A
C2461      H2466   1.082       .  S
C2463      H2467   1.077       .  S
C2464      C2799   1.385       .  A
C2465      C2796   1.408       .  A
C2465      H2468   1.077       .  S
O2469      C2490   1.264       .  A
O2470      C2479   1.264       .  A
O2470     Ni2493   1.901       .  S
O2471     Ni2475   1.923       .  S
O2471     Ni2493   1.890       .  S
O2471     Ni2487   1.924       .  S
O2471      H2494   0.966       .  S
C2472      O2489   1.263       .  A
C2472      O2481   1.270       .  A
O2473      C2479   1.273       .  A
O2473     Ni2492   1.933       .  S
O2474      C2476   1.270       .  A
O2474     Ni2492   1.910       .  S
Ni2475     O2478   1.946       .  S
Ni2475     O2480   1.902       .  S
C2476      O2486   1.283       .  A
O2477      C2483   1.266       .  A
O2477     Ni2493   1.881       .  S
O2478      C2483   1.278       .  A
O2480      C2482   1.264       .  A
O2481     Ni2492   1.938       .  S
C2482      O2488   1.277       .  A
H2484      O2485   0.967       .  S
O2485     Ni2493   1.913       .  S
O2485     Ni2487   1.905       .  S
O2485     Ni2492   1.929       .  S
O2486     Ni2487   1.957       .  S
Ni2487     O2491   1.898       .  S
Ni2487     O2489   1.906       .  S
O2488     Ni2493   1.948       .  S
N2495      C2499   1.373       .  A
N2495      C2496   1.370       .  A
N2495      C2516   1.476       .  S
C2496      C2497   1.385       .  A
C2496      C2539   1.501       .  S
C2497      C2498   1.366       .  A
C2497      H2500   1.080       .  S
C2498      C2499   1.391       .  A
C2498      H2501   1.083       .  S
C2499      C2588   1.512       .  S
N2502      C2520   1.450   1_455  S
C2503      C2504   1.366       .  A
C2503      C2538   1.476       .  S
C2504      C2505   1.352       .  A
C2504      H2507   1.066       .  S
C2505      C2506   1.380       .  A
C2505      H2508   1.084       .  S
C2506      C2602   1.459       .  S
N2509      C2513   1.359       .  A
N2509      C2510   1.373       .  A
N2509      C2518   1.446       .  S
C2510      C2584   1.485       .  S
C2511      C2846   1.384       .  A
C2511      C2512   1.353       .  A
C2511      H2514   1.083       .  S
C2512      C2849   1.376       .  A
C2512      H2515   1.083       .  S
C2516      C2517   1.425       .  A
C2516      C2521   1.442       .  A
C2517      C2518   1.423       .  A
C2517      H2522   1.082       .  S
C2518      C2519   1.384       .  A
C2519      C2520   1.379       .  A
C2519      H2523   1.075       .  S
C2520      C2521   1.403       .  A
C2521      H2524   1.079       .  S
O2525      C2546   1.285       .  A
O2525     Ni2531   1.958       .  S
O2526      C2535   1.255       .  A
O2526     Ni2549   1.882       .  S
O2527     Ni2531   1.910       .  S
O2527     Ni2549   1.881       .  S
O2527     Ni2543   1.915       .  S
O2527      H2550   0.964       .  S
C2528      O2545   1.279       .  A
C2528      O2537   1.285       .  A
O2529      C2535   1.276       .  A
O2529     Ni2548   1.943       .  S
O2530      C2532   1.268       .  A
O2530     Ni2548   1.941       .  S
Ni2531     O2534   1.954       .  S
Ni2531     O2536   1.942       .  S
C2532      O2542   1.260       .  A
O2533      C2539   1.281       .  A
O2533     Ni2549   1.933       .  S
O2534      C2539   1.282       .  A
C2535      C2849   1.444       .  S
O2536      C2538   1.274       .  A
O2537     Ni2548   1.949       .  S
C2538      O2544   1.256       .  A
H2540      O2541   0.966       .  S
O2541     Ni2549   1.883       .  S
O2541     Ni2543   1.892       .  S
O2541     Ni2548   1.902       .  S
O2542     Ni2543   1.900       .  S
Ni2543     O2547   1.908       .  S
Ni2543     O2545   1.901       .  S
O2544     Ni2549   1.902       .  S
C2546      O2547   1.267       .  A
N2551      C2555   1.372       .  A
N2551      C2552   1.370       .  A
N2551      C2572   1.479       .  S
C2552      C2553   1.384       .  A
C2552      C2666   1.501       .  S
C2553      C2554   1.366       .  A
C2553      H2556   1.080       .  S
C2554      C2555   1.390       .  A
C2554      H2557   1.083       .  S
C2555      C2594   1.508       .  S
N2558      C2562   1.374       .  A
N2558      C2559   1.368       .  A
N2558      C2574   1.447       .  S
C2560      C2561   1.352       .  A
C2560      H2563   1.066       .  S
C2561      H2564   1.084       .  S
C2562      C2591   1.463       .  S
N2565      C2569   1.354       .  A
N2565      C2566   1.371       .  A
N2565      C2576   1.447       .  S
C2566      C2567   1.386       .  A
C2566      C2595   1.481       .  S
C2567      C2904   1.354       .  A
C2567      H2906   1.083       .  S
C2568      H2571   1.083       .  S
C2569      C2904   1.376       .  A
C2569      C3020   1.440       .  S
C2572      C2573   1.440       .  A
C2572      C2577   1.426       .  A
C2573      C2574   1.408       .  A
C2573      H2578   1.080       .  S
C2574      C2575   1.380       .  A
C2575      C2576   1.384       .  A
C2575      H2579   1.078       .  S
C2576      C2577   1.426       .  A
C2577      H2580   1.082       .  S
O2581      C2602   1.274       .  A
O2581     Ni2587   1.948       .  S
O2582      C2591   1.267       .  A
O2582     Ni2605   1.881       .  S
O2583     Ni2587   1.893       .  S
O2583     Ni2941   1.890       .  S
O2583     Ni2599   1.894       .  S
O2583      H2606   0.966       .  S
C2584      O2593   1.282       .  A
O2585      C2591   1.277       .  A
O2585     Ni2604   1.958       .  S
O2586      C2588   1.275       .  A
O2586     Ni2604   1.915       .  S
Ni2587     O2590   1.945       .  S
C2588      O2598   1.279       .  A
O2589      C2595   1.268       .  A
O2589     Ni2941   1.878       .  S
O2590      C2595   1.279       .  A
O2592      C2594   1.275       .  A
C2594      O2600   1.275       .  A
O2597     Ni2605   1.893       .  S
O2597     Ni2604   1.888       .  S
Ni2599     O2934   1.971       .  S
Ni2599     O2603   1.886       .  S
Ni2599     O2933   1.891       .  S
O2601      C2920   1.267       .  A
C2602      O2603   1.268       .  A
N2607      C2611   1.356       .  A
N2607      C2608   1.364       .  A
C2608      C2609   1.376       .  A
C2608      C3013   1.478       .  S
C2609      C2610   1.371       .  A
C2609      H2612   1.083       .  S
C2610      C2611   1.391       .  A
C2610      H2613   1.083       .  S
C2611      C2650   1.476       .  S
N2614      C2618   1.351       .  A
N2614      C2615   1.360       .  A
N2614      C2630   1.446       .  S
C2615      C2616   1.376       .  A
C2615      C2651   1.475       .  S
C2616      C2617   1.369       .  A
C2616      H2619   1.083       .  S
C2617      C2618   1.390       .  A
C2617      H2620   1.082       .  S
C2618      C2676   1.462       .  S
N2621      C2625   1.357       .  A
N2621      C2622   1.367       .  A
N2621      C2632   1.436       .  S
C2622      C2623   1.382       .  A
C2622      C2673   1.466       .  S
C2623      C2624   1.372       .  A
C2623      H2626   1.083       .  S
C2624      C2625   1.375       .  A
C2624      H2627   1.079       .  S
C2625      C2647   1.470       .  S
C2628      C2965   1.410       .  A
C2628      C2633   1.407       .  A
C2629      C2630   1.406       .  A
C2629      H2634   1.078       .  S
C2631      C2966   1.404       .  A
C2631      C2632   1.401       .  A
C2631      H2635   1.081       .  S
C2632      C2633   1.407       .  A
O2637      C2658   1.277       .  A
O2637     Ni2643   1.936       .  S
O2638      C2647   1.255       .  A
O2638     Ni2661   1.875       .  S
O2639     Ni2643   1.914       .  S
O2639     Ni2661   1.896       .  S
O2639     Ni2655   1.905       .  S
O2639      H2662   0.966       .  S
C2640      O2657   1.273       .  A
C2640      O2649   1.291       .  A
O2641      C2647   1.286       .  A
O2641     Ni2660   1.986       .  S
O2642      C2644   1.272       .  A
O2642     Ni2660   1.943       .  S
Ni2643     O2646   1.938       .  S
Ni2643     O2648   1.944       .  S
C2644      O2654   1.274       .  A
O2645      C2651   1.271       .  A
O2645     Ni2661   1.912       .  S
O2646      C2651   1.277       .  A
O2648      C2650   1.273       .  A
O2649     Ni2660   1.973       .  S
C2650      O2656   1.261       .  A
H2652      O2653   0.966       .  S
O2653     Ni2661   1.875       .  S
O2653     Ni2655   1.876       .  S
O2653     Ni2660   1.909       .  S
O2654     Ni2655   1.913       .  S
Ni2655     O2659   1.908       .  S
Ni2655     O2657   1.882       .  S
O2656     Ni2661   1.885       .  S
C2658      O2659   1.264       .  A
O2663      C3020   1.274       .  A
O2663     Ni2669   1.940       .  S
O2664     Ni2687   1.878       .  S
O2665     Ni2687   1.896       .  S
O2665     Ni2681   1.899       .  S
O2665      H2688   0.966       .  S
C2666      O2683   1.288       .  A
C2666      O2675   1.289       .  A
O2667      C2673   1.293       .  A
Ni2669     O2672   1.945       .  S
Ni2669     O3010   1.930       .  S
Ni2669     O3001   1.914       .  S
C2670      O2680   1.256   1_455  A
O2671      C2677   1.278       .  A
O2671     Ni2687   1.922       .  S
O2672      C3013   1.282       .  A
O2674      C2676   1.269       .  A
O2675     Ni2686   1.961       .  S
C2676      O2682   1.257       .  A
H2678      O2679   0.965       .  S
O2679     Ni2687   1.885       .  S
O2679     Ni2681   1.857       .  S
O2679     Ni2686   1.907       .  S
O2680     Ni2681   1.906       .  S
Ni2681     O2685   1.879       .  S
Ni2681     O2683   1.940       .  S
O2682     Ni2687   1.876       .  S
C2684      O2685   1.253       .  A
N2689      C2693   1.355       .  A
N2689      C2690   1.368       .  A
C2690      C2691   1.391       .  A
C2690      C2980   1.493       .  S
C2691      C2692   1.365       .  A
C2691      H2694   1.083       .  S
C2692      C2693   1.371       .  A
C2692      H2695   1.077       .  S
C2693      C2763   1.469       .  S
N2696      C2700   1.370       .  A
N2696      C2697   1.376       .  A
N2696      C2712   1.465       .  S
C2697      C2698   1.393   1_655  A
C2697      C2762   1.500       .  S
C2698      C2699   1.353       .  A
C2698      H2701   1.081       .  S
C2699      C2700   1.375   1_455  A
C2699      H2702   1.083       .  S
C2700      C2994   1.469       .  S
N2703      C2704   1.368       .  A
N2703      C2710   1.470       .  S
C2704      C2759   1.473       .  S
C2705      C2706   1.346       .  A
C2705      H2708   1.081       .  S
C2706      C2707   1.374       .  A
C2706      H2709   1.083       .  S
C2707      C2976   1.472       .  S
C2710      C2711   1.431       .  A
C2710      C2715   1.419       .  A
C2711      C2712   1.428       .  A
C2711      H2716   1.082       .  S
C2712      C2713   1.417       .  A
C2713      C2714   1.380       .  A
C2713      H2717   1.079   1_655  S
C2714      C2715   1.408       .  A
C2715      H2718   1.081       .  S
N2719      C2720   1.370       .  A
N2719      C2735   1.459       .  S
C2720      C2770   1.473       .  S
C2721      C2722   1.365       .  A
C2721      H2724   1.084       .  S
C2722      C2723   1.371       .  A
C2722      H2725   1.077       .  S
C2723      C2808   1.470       .  S
N2726      C2730   1.370       .  A
N2726      C2727   1.371       .  A
N2726      C2733   1.457       .  S
C2727      C2728   1.382       .  A
C2727      C2812   1.482       .  S
C2728      C2729   1.365       .  A
C2728      H2731   1.082       .  S
C2729      C2730   1.400       .  A
C2729      H2732   1.083       .  S
C2730      C2756   1.506       .  S
C2733      C2734   1.431       .  A
C2733      C2738   1.425       .  A
C2734      C2735   1.381       .  A
C2734      H2739   1.074       .  S
C2735      C2736   1.387       .  A
C2736      C2737   1.385       .  A
C2736      H2740   1.036       .  S
C2737      N2742   1.458       .  S
C2737      C2738   1.418       .  A
C2738      H2741   1.082       .  S
N2742      C2746   1.369       .  A
N2742      C2743   1.357       .  A
C2743      C2744   1.387       .  A
C2743      C2826   1.445       .  S
C2744      C2745   1.361       .  A
C2745      C2746   1.370       .  A
C2745      H2748   1.082       .  S
C2746      C2752   1.465       .  S
O2749      C2770   1.278       .  A
O2750      C2759   1.269       .  A
O2750     Ni2773   1.922       .  S
O2751     Ni2773   1.884   1_556  S
O2751      H2774   0.966       .  S
C2752      O2769   1.253       .  A
C2752      O2761   1.264       .  A
O2753      C2759   1.269   1_556  A
O2754      C2756   1.266       .  A
Ni2755     O2758   1.935       .  S
C2756      O2766   1.297       .  A
O2757      C2763   1.281       .  A
O2757     Ni2773   1.913       .  S
O2760      C2762   1.277       .  A
O2761     Ni2772   1.924       .  S
H2764      O2765   0.966       .  S
O2765     Ni2767   1.903       .  S
O2765     Ni2772   1.895       .  S
Ni2767     O2769   1.890       .  S
C2770      O2771   1.267       .  A
N2775      C2779   1.358       .  A
N2775      C2776   1.363       .  A
N2775      C2800   1.442       .  S
C2776      C2777   1.387       .  A
C2776      C2868   1.473       .  S
C2777      C2778   1.355       .  A
C2777      H2780   1.081       .  S
C2778      C2779   1.374       .  A
C2778      H2781   1.081       .  S
C2779      C2819   1.465       .  S
N2782      C2786   1.366       .  A
C2783      C2815   1.471       .  S
C2784      C2785   1.355       .  A
C2785      C2786   1.368       .  A
C2785      H2788   1.083       .  S
C2786      C2864   1.457       .  S
N2789      C2790   1.365       .  A
C2790      C2791   1.379       .  A
C2790      C2818   1.479       .  S
C2791      H2794   1.074       .  S
C2792      C2793   1.379       .  A
C2792      H2795   1.082       .  S
C2793      C2882   1.480       .  S
C2796      C2797   1.424       .  A
C2797      C2798   1.424       .  A
C2797      H2802   1.082       .  S
C2799      H2803   1.077       .  S
C2801      H2804   1.077       .  S
O2805      C2826   1.264       .  A
O2806      C2815   1.264       .  A
O2806     Ni2829   1.901       .  S
O2807     Ni2811   1.923       .  S
O2807     Ni2829   1.890       .  S
O2807     Ni2823   1.924       .  S
O2807      H2830   0.966       .  S
C2808      O2825   1.263       .  A
C2808      O2817   1.270       .  A
O2809      C2815   1.273       .  A
O2809     Ni2828   1.933       .  S
O2810      C2812   1.270       .  A
O2810     Ni2828   1.910       .  S
Ni2811     O2814   1.946       .  S
Ni2811     O2816   1.902       .  S
C2812      O2822   1.283       .  A
O2813      C2819   1.266       .  A
O2813     Ni2829   1.881       .  S
O2814      C2819   1.278       .  A
O2816      C2818   1.264       .  A
O2817     Ni2828   1.939       .  S
C2818      O2824   1.277       .  A
H2820      O2821   0.967       .  S
O2821     Ni2829   1.913       .  S
O2821     Ni2823   1.905       .  S
O2821     Ni2828   1.929       .  S
O2822     Ni2823   1.957       .  S
Ni2823     O2827   1.898       .  S
Ni2823     O2825   1.906       .  S
O2824     Ni2829   1.948       .  S
N2831      C2835   1.373       .  A
N2831      C2832   1.370       .  A
N2831      C2852   1.476       .  S
C2832      C2833   1.385       .  A
C2832      C2875   1.501       .  S
C2833      C2834   1.366       .  A
C2833      H2836   1.080       .  S
C2834      C2835   1.391       .  A
C2834      H2837   1.083       .  S
C2835      C2924   1.512       .  S
N2838      C2856   1.450   1_455  S
C2839      C2840   1.366       .  A
C2839      C2874   1.476       .  S
C2840      C2841   1.352       .  A
C2840      H2843   1.066       .  S
C2841      C2842   1.380       .  A
C2841      H2844   1.084       .  S
C2842      C2938   1.459       .  S
N2845      C2849   1.359       .  A
N2845      C2846   1.373       .  A
N2845      C2854   1.446       .  S
C2846      C2920   1.485       .  S
C2847      C2848   1.353       .  A
C2847      H2850   1.083       .  S
C2848      H2851   1.083       .  S
C2852      C2853   1.425       .  A
C2852      C2857   1.442       .  A
C2853      C2854   1.423       .  A
C2853      H2858   1.082       .  S
C2854      C2855   1.384       .  A
C2855      C2856   1.379       .  A
C2855      H2859   1.075       .  S
C2856      C2857   1.403       .  A
C2857      H2860   1.079       .  S
O2861      C2882   1.285       .  A
O2861     Ni2867   1.958       .  S
O2862      C2871   1.255       .  A
O2862     Ni2885   1.882       .  S
O2863     Ni2867   1.910       .  S
O2863     Ni2885   1.881       .  S
O2863     Ni2879   1.915       .  S
O2863      H2886   0.964       .  S
C2864      O2881   1.279       .  A
C2864      O2873   1.285       .  A
O2865      C2871   1.276       .  A
O2865     Ni2884   1.943       .  S
O2866      C2868   1.268       .  A
O2866     Ni2884   1.941       .  S
Ni2867     O2870   1.954       .  S
Ni2867     O2872   1.942       .  S
C2868      O2878   1.260       .  A
O2869      C2875   1.281       .  A
O2869     Ni2885   1.933       .  S
O2870      C2875   1.282       .  A
O2872      C2874   1.274       .  A
O2873     Ni2884   1.949       .  S
C2874      O2880   1.256       .  A
H2876      O2877   0.966       .  S
O2877     Ni2885   1.883       .  S
O2877     Ni2879   1.892       .  S
O2877     Ni2884   1.902       .  S
O2878     Ni2879   1.900       .  S
Ni2879     O2883   1.908       .  S
Ni2879     O2881   1.901       .  S
O2880     Ni2885   1.902       .  S
C2882      O2883   1.267       .  A
N2887      C2891   1.372       .  A
N2887      C2888   1.370       .  A
N2887      C2908   1.479       .  S
C2888      C2889   1.384       .  A
C2888      C3002   1.501       .  S
C2889      C2890   1.366       .  A
C2889      H2892   1.080       .  S
C2890      C2891   1.390       .  A
C2890      H2893   1.083       .  S
C2891      C2930   1.508       .  S
N2894      C2898   1.374       .  A
N2894      C2895   1.368       .  A
N2894      C2910   1.447       .  S
C2896      C2897   1.352       .  A
C2896      H2899   1.066       .  S
C2897      H2900   1.084       .  S
C2898      C2927   1.463       .  S
N2901      C2905   1.354   1_565  A
N2901      C2902   1.371   1_565  A
N2901      C2912   1.447       .  S
C2902      C2903   1.386       .  A
C2902      C2931   1.481   1_545  S
C2904      H2907   1.083       .  S
C2908      C2909   1.440       .  A
C2908      C2913   1.426       .  A
C2909      C2910   1.408       .  A
C2909      H2914   1.080       .  S
C2910      C2911   1.380       .  A
C2911      C2912   1.384       .  A
C2911      H2915   1.078       .  S
C2912      C2913   1.426       .  A
C2913      H2916   1.082       .  S
O2917      C2938   1.274       .  A
O2917     Ni2923   1.948       .  S
O2918      C2927   1.267       .  A
O2918     Ni2941   1.881       .  S
O2919     Ni2923   1.893       .  S
O2919     Ni2935   1.894       .  S
O2919      H2942   0.966       .  S
C2920      O2929   1.282       .  A
O2921      C2927   1.277       .  A
O2921     Ni2940   1.958       .  S
O2922      C2924   1.275       .  A
O2922     Ni2940   1.915       .  S
Ni2923     O2926   1.945       .  S
C2924      O2934   1.279       .  A
O2925      C2931   1.268   1_545  A
O2926      C2931   1.279       .  A
O2928      C2930   1.275       .  A
C2930      O2936   1.275       .  A
O2933     Ni2941   1.893       .  S
O2933     Ni2940   1.888       .  S
Ni2935     O2939   1.886       .  S
C2938      O2939   1.268       .  A
N2943      C2947   1.356   1_545  A
N2943      C2944   1.364       .  A
C2944      C2945   1.376       .  A
C2945      C2946   1.371       .  A
C2945      H2948   1.083       .  S
C2946      C2947   1.391   1_545  A
C2946      H2949   1.083       .  S
C2947      C2986   1.476       .  S
N2950      C2954   1.351       .  A
N2950      C2951   1.360       .  A
N2950      C2966   1.446       .  S
C2951      C2952   1.376       .  A
C2951      C2987   1.475       .  S
C2952      C2953   1.369       .  A
C2952      H2955   1.083       .  S
C2953      C2954   1.390       .  A
C2953      H2956   1.082       .  S
C2954      C3012   1.462       .  S
N2957      C2961   1.357       .  A
N2957      C2958   1.367       .  A
N2957      C2968   1.435       .  S
C2958      C2959   1.382       .  A
C2958      C3009   1.466       .  S
C2959      C2960   1.372       .  A
C2959      H2962   1.083       .  S
C2960      C2961   1.375       .  A
C2960      H2963   1.079       .  S
C2961      C2983   1.470       .  S
C2964      C2969   1.407   1_545  A
C2965      C2966   1.406       .  A
C2965      H2970   1.078       .  S
C2967      C2968   1.401   1_545  A
C2967      H2971   1.081       .  S
C2968      C2969   1.407       .  A
O2973      C2994   1.277       .  A
O2973     Ni2979   1.936       .  S
O2974      C2983   1.255       .  A
O2974     Ni2997   1.875       .  S
O2975     Ni2979   1.914       .  S
O2975     Ni2997   1.896       .  S
O2975     Ni2991   1.905       .  S
O2975      H2998   0.966       .  S
C2976      O2993   1.273       .  A
C2976      O2985   1.291       .  A
O2977      C2983   1.286       .  A
O2977     Ni2996   1.986       .  S
O2978      C2980   1.272       .  A
O2978     Ni2996   1.943       .  S
Ni2979     O2982   1.938       .  S
Ni2979     O2984   1.944       .  S
C2980      O2990   1.274       .  A
O2981      C2987   1.271       .  A
O2981     Ni2997   1.912       .  S
O2982      C2987   1.277       .  A
O2984      C2986   1.273       .  A
O2985     Ni2996   1.973       .  S
C2986      O2992   1.261       .  A
H2988      O2989   0.966       .  S
O2989     Ni2997   1.875       .  S
O2989     Ni2991   1.876       .  S
O2989     Ni2996   1.909       .  S
O2990     Ni2991   1.913       .  S
Ni2991     O2995   1.908       .  S
Ni2991     O2993   1.882       .  S
O2992     Ni2997   1.885       .  S
C2994      O2995   1.264       .  A
O2999     Ni3005   1.940   1_565  S
O3000     Ni3023   1.878       .  S
O3001     Ni3023   1.896       .  S
O3001     Ni3017   1.899       .  S
O3001      H3024   0.966       .  S
C3002      O3019   1.288       .  A
C3002      O3011   1.289       .  A
O3003      C3009   1.293       .  A
Ni3005     O3008   1.945       .  S
C3006      O3016   1.256   1_455  A
O3007      C3013   1.278       .  A
O3007     Ni3023   1.922       .  S
O3010      C3012   1.269       .  A
O3011     Ni3022   1.961       .  S
C3012      O3018   1.257       .  A
H3014      O3015   0.965       .  S
O3015     Ni3023   1.885       .  S
O3015     Ni3017   1.857       .  S
O3015     Ni3022   1.907       .  S
O3016     Ni3017   1.906       .  S
Ni3017     O3021   1.879       .  S
Ni3017     O3019   1.940       .  S
O3018     Ni3023   1.876       .  S
C3020      O3021   1.253       .  A
