geometry optimzed in LAMMPS
_audit_creation_date              2020-11-30 
_audit_creation_method            'lammps2cif' 
_symmetry_space_group_name_H-M    'P1' 
_symmetry_Int_Tables_number       1 
_symmetry_cell_setting            triclinic 
loop_ 
_symmetry_equiv_pos_as_xyz 
  x,y,z 
_cell_length_a                    50.95942029001261 
_cell_length_b                    50.9768999123124 
_cell_length_c                    37.2727535311389 
_cell_angle_alpha                 89.95791355684639 
_cell_angle_beta                  89.98512923264059 
_cell_angle_gamma                 122.42302480545341 
loop_ 
_atom_site_label 
_atom_site_type_symbol 
_atom_site_fract_x 
_atom_site_fract_y 
_atom_site_fract_z 
_atom_site_charge 
N1          N  0.15464924  0.36013156  0.45579106    -0.27350
N2          N  0.16134754  0.38733424  0.44327400    -0.35200
C3          C  0.14239534  0.38273402  0.41579524     0.00990
C4          C  0.12258174  0.35109104  0.41046872     0.07020
C5          C  0.13116331  0.33740218  0.43623777    -0.06080
H6          H  0.14304697  0.40130399  0.40092818     0.07690
H7          H  0.12054565  0.31281352  0.44115843     0.08890
Cu8        Cu  0.19482898  0.43029164  0.46361883     0.44170
Cu9        Cu  0.17692758  0.35579055  0.50011347     0.41990
Cu10       Cu  0.23592436  0.43095753  0.53978055     0.43880
N11         N  0.22868145  0.47118645  0.48769261    -0.34730
N12         N  0.24414798  0.47149554  0.51627897    -0.28990
C13         C  0.26465813  0.50114766  0.52584643    -0.05090
C14         C  0.26176634  0.52021119  0.50202823     0.07130
C15         C  0.23883042  0.50060286  0.47818344     0.00920
H16         H  0.28049675  0.50822684  0.54830746     0.08580
H17         H  0.23023540  0.50715726  0.45556622     0.07660
N18         N  0.22440245  0.38794472  0.55907705    -0.36180
N19         N  0.20323361  0.36071485  0.54530417    -0.28360
C20         C  0.20242548  0.33805143  0.56490666    -0.03600
C21         C  0.22428596  0.35175099  0.59214459     0.05010
C22         C  0.23760472  0.38338656  0.58750100     0.03100
H23         H  0.18745941  0.31349822  0.55925090     0.08210
H24         H  0.25560091  0.40198951  0.60360112     0.07040
N25         N  0.36126226  0.14391822  0.04655397    -0.27350
N26         N  0.38843469  0.15080786  0.05939714    -0.35200
C27         C  0.38377723  0.13171379  0.08673493     0.00990
C28         C  0.35213353  0.11155668  0.09165103     0.07020
C29         C  0.33846961  0.12011503  0.06580588    -0.06080
H30         H  0.40232627  0.13244115  0.10173346     0.07690
H31         H  0.31388541  0.10921758  0.06057852     0.08890
Cu32       Cu  0.43155356  0.18441146  0.03958525     0.44170
Cu33       Cu  0.35725163  0.16632429  0.00200752     0.41990
Cu34       Cu  0.43320657  0.22470428  0.96265325     0.43880
N35         N  0.47281701  0.21779636  0.01577958    -0.34730
N36         N  0.47351092  0.23301130  0.98675410    -0.28990
C37         C  0.50328786  0.25323254  0.97731525    -0.05090
C38         C  0.52201620  0.25038963  0.00169924     0.07130
C39         C  0.50209435  0.22780098  0.02573273     0.00920
H40         H  0.51067235  0.26883428  0.95456912     0.08580
H41         H  0.50833961  0.21934001  0.04875992     0.07660
N42         N  0.39048158  0.21331252  0.94265258    -0.36180
N43         N  0.36301341  0.19261166  0.95634676    -0.28360
C44         C  0.34076600  0.19198499  0.93607869    -0.03600
C45         C  0.35496303  0.21335167  0.90830399     0.05010
C46         C  0.38650969  0.22628785  0.91358923     0.03100
H47         H  0.31613842  0.17719414  0.94145882     0.08210
H48         H  0.40557255  0.24404474  0.89777319     0.07040
N49         N  0.15250358  0.35566145  0.04717786    -0.27350
N50         N  0.15828209  0.38273516  0.05895118    -0.35200
C51         C  0.13895435  0.37794389  0.08607180     0.00990
C52         C  0.11985686  0.34632554  0.09201580     0.07020
C53         C  0.12924497  0.33280589  0.06698422    -0.06080
H54         H  0.13882768  0.39636198  0.10030978     0.07690
H55         H  0.11925371  0.30823770  0.06267600     0.08890
Cu56       Cu  0.19106539  0.42585831  0.03834234     0.44170
Cu57       Cu  0.17558428  0.35187631  0.00316710     0.41990
Cu58       Cu  0.23265431  0.42770742  0.96243072     0.43880
N59         N  0.22472609  0.46715916  0.01480538    -0.34730
N60         N  0.24042687  0.46791354  0.98622472    -0.28990
C61         C  0.26104098  0.49770427  0.97721973    -0.05090
C62         C  0.25796405  0.51638865  0.00141389     0.07130
C63         C  0.23481198  0.49641780  0.02488928     0.00920
H64         H  0.27717884  0.50512997  0.95500057     0.08580
H65         H  0.22614146  0.50261762  0.04774553     0.07660
N66         N  0.22222868  0.38504006  0.94335118    -0.36180
N67         N  0.20197650  0.35764209  0.95757895    -0.28360
C68         C  0.20194579  0.33538762  0.93800767    -0.04100
C69         C  0.22331575  0.34952243  0.91027579     0.05010
C70         C  0.23554425  0.38099757  0.91465287     0.03100
H71         H  0.18777833  0.31081813  0.94397565     0.08210
H72         H  0.25290818  0.39987063  0.89825182     0.07040
N73         N  0.81789513  0.20972842  0.46207156    -0.27350
N74         N  0.81046802  0.22785607  0.44565868    -0.35200
C75         C  0.82732575  0.23904181  0.41548394     0.00990
C76         C  0.84641668  0.22744773  0.41254499     0.07020
C77         C  0.83968753  0.20885705  0.44265375    -0.06080
H78         H  0.82555395  0.25441989  0.39707041     0.07690
H79         H  0.85007766  0.19592263  0.45026855     0.08890
Cu80       Cu  0.77793364  0.23705400  0.46443897     0.44170
Cu81       Cu  0.79773689  0.18679010  0.50983691     0.41990
Cu82       Cu  0.73645860  0.19643212  0.54397229     0.43880
N83         N  0.74463197  0.24285092  0.48820744    -0.34730
N84         N  0.72927354  0.22781669  0.51751325    -0.28990
C85         C  0.70962465  0.23673705  0.52652190    -0.05090
C86         C  0.71290283  0.25835504  0.50163617     0.07130
C87         C  0.73521070  0.26177725  0.47773098     0.00920
H88         H  0.69432326  0.22827716  0.54956815     0.08580
H89         H  0.74409593  0.27698429  0.45462005     0.07660
N90         N  0.74819554  0.16681440  0.56627510    -0.36180
N91         N  0.77092064  0.16377818  0.55456207    -0.28360
C92         C  0.77180669  0.14230234  0.57462510    -0.03600
C93         C  0.74828287  0.13104451  0.59996492     0.05010
C94         C  0.73388195  0.14722132  0.59384792     0.03100
H95         H  0.78760926  0.13459663  0.57009686     0.08210
H96         H  0.71421928  0.14480873  0.60812567     0.07040
N97         N  0.80790773  0.19882511  0.05435780    -0.27350
N98         N  0.80415482  0.22058201  0.06783848    -0.35200
C99         C  0.82347395  0.23395230  0.09579293     0.00990
C100        C  0.84011163  0.21984962  0.10030433     0.07020
C101        C  0.82949893  0.19753622  0.07366739    -0.06080
H102        H  0.82543788  0.25279861  0.11142531     0.07690
H103        H  0.83776943  0.18239823  0.06775268     0.08890
Cu104      Cu  0.77374347  0.23207926  0.04752105     0.44170
Cu105      Cu  0.78549097  0.17382399  0.00862000     0.41990
Cu106      Cu  0.73010930  0.18969277  0.96957645     0.43880
N107        N  0.74124206  0.23876470  0.02314279    -0.34730
N108        N  0.72506442  0.22303511  0.99457947    -0.28990
C109        C  0.70595351  0.23253239  0.98523671    -0.05090
C110        C  0.71043438  0.25525283  0.00910161     0.07130
C111        C  0.73287983  0.25871709  0.03278900     0.00920
H112        H  0.69007473  0.22358774  0.96274819     0.08580
H113        H  0.74243166  0.27449694  0.05531987     0.07660
N114        N  0.74033802  0.15863030  0.94826712    -0.36180
N115        N  0.76093916  0.15326858  0.96200804    -0.28360
C116        C  0.76222106  0.13227028  0.94151870    -0.03600
C117        C  0.74116002  0.12375351  0.91370784     0.05010
C118        C  0.72773670  0.14097326  0.91889201     0.03100
H119        H  0.77680472  0.12328130  0.94709252     0.08210
H120        H  0.71013312  0.14081351  0.90251022     0.07040
C121        C  0.66529116  0.30148149  0.00823090     0.03070
C122        C  0.63275664  0.28440893  0.00640131    -0.13080
C123        C  0.61683302  0.29983722  0.00539112     0.00570
C124        C  0.63347099  0.33237231  0.00622362    -0.11600
C125        C  0.66600220  0.34949717  0.00804725     0.03060
C126        C  0.68190883  0.33403411  0.00906546    -0.11020
H127        H  0.61988588  0.25922061  0.00571510     0.08660
H128        H  0.62115558  0.34431869  0.00536975     0.06190
H129        H  0.70709417  0.34726666  0.01035426     0.06040
N130        N  0.82313284  0.60296962  0.95705227    -0.27350
N131        N  0.81443310  0.57544401  0.94369769    -0.35200
C132        C  0.83228215  0.57924216  0.91530686     0.00990
C133        C  0.85352884  0.61071250  0.91028614     0.07020
C134        C  0.84689370  0.62511571  0.93722609    -0.06080
H135        H  0.82993486  0.56020769  0.89973443     0.07690
H136        H  0.85895153  0.64975652  0.94269575     0.08890
Cu137      Cu  0.77999375  0.53310383  0.96450260     0.44170
Cu138      Cu  0.80265247  0.60844789  0.00236532     0.41990
Cu139      Cu  0.73981934  0.53442363  0.04071668     0.43880
N140        N  0.74626638  0.49290802  0.98993529    -0.34730
N141        N  0.73115371  0.49330884  0.01850759    -0.28990
C142        C  0.71109045  0.46391891  0.02942184    -0.05090
C143        C  0.71391740  0.44430042  0.00649437     0.07130
C144        C  0.73633236  0.46329820  0.98178196     0.00920
H145        H  0.69577034  0.45740314  0.05234285     0.08580
H146        H  0.74489282  0.45620822  0.95964922     0.07660
N147        N  0.75303233  0.57805113  0.05953221    -0.36180
N148        N  0.77598223  0.60484720  0.04662467    -0.28360
C149        C  0.77783428  0.62816571  0.06587566    -0.03600
C150        C  0.75471368  0.61534640  0.09180920     0.05010
C151        C  0.73958289  0.58356766  0.08691833     0.03100
H152        H  0.79425482  0.65259487  0.06074120     0.08210
H153        H  0.72022396  0.56557466  0.10225559     0.07040
O154        O  0.01313073  0.26893416  0.29155444    -0.73000
O155        O  0.94584172  0.23796464  0.21560775    -0.73980
O156        O  0.01215412  0.26723020  0.21432654    -0.62600
O157        O  0.94691382  0.23964456  0.29246248    -0.71010
O158        O  0.95256856  0.28586564  0.28972740    -0.70560
O159        O  0.01706278  0.31313466  0.21419972    -0.61820
O160        O  0.95245663  0.28462520  0.21472708    -0.74330
O161        O  0.01746425  0.31455328  0.28971885    -0.73110
Cu162      Cu  0.97933804  0.25168660  0.25354617     1.04560
Cu163      Cu  0.98513744  0.30100636  0.25207652     1.04330
C164        C  0.02568359  0.29688918  0.30280985     0.93200
C165        C  0.93858075  0.25672928  0.20332289     0.92340
C166        C  0.02465970  0.29479533  0.20172872     0.84480
C167        C  0.93928236  0.25857681  0.30299859     0.90750
N168        N  0.21438069  0.81006487  0.46226145    -0.27350
N169        N  0.23538497  0.80564365  0.44778162    -0.35200
C170        C  0.24775743  0.82414772  0.41896142     0.00990
C171        C  0.23378135  0.84096765  0.41492996     0.07020
C172        C  0.21259703  0.83130416  0.44280253    -0.06080
H173        H  0.26563328  0.82520381  0.40220155     0.07690
H174        H  0.19765036  0.83971799  0.44916012     0.08890
Cu175      Cu  0.24662142  0.77485081  0.46752128     0.44170
Cu176      Cu  0.19027050  0.78802068  0.50862232     0.41990
Cu177      Cu  0.20455413  0.73079537  0.54573105     0.43880
N178        N  0.25295891  0.74180988  0.49108291    -0.34730
N179        N  0.23741980  0.72552420  0.51972639    -0.28990
C180        C  0.24651685  0.70591105  0.52818760    -0.05090
C181        C  0.26877082  0.71018127  0.50366131     0.07130
C182        C  0.27237157  0.73301768  0.48051169     0.00920
H183        H  0.23752753  0.68974815  0.55043486     0.08580
H184        H  0.28780354  0.74246702  0.45763435     0.07660
N185        N  0.17338686  0.74086256  0.56721152    -0.36180
N186        N  0.16872533  0.76217389  0.55421646    -0.28360
C187        C  0.14696583  0.76267466  0.57406681    -0.03600
C188        C  0.13717559  0.74035023  0.60064179     0.05010
C189        C  0.15448103  0.72701198  0.59546477     0.03100
H190        H  0.13811029  0.77739193  0.56862021     0.08210
H191        H  0.15331661  0.70842775  0.61087905     0.07040
C192        C  0.31367289  0.66374182  0.49978921     0.03070
C193        C  0.29647639  0.63118529  0.50088127    -0.13080
C194        C  0.31174681  0.61509818  0.49982021     0.00570
C195        C  0.34425748  0.63161392  0.49764892    -0.11600
C196        C  0.36150052  0.66417011  0.49655616     0.03060
C197        C  0.34618339  0.68021537  0.49761452    -0.11020
H198        H  0.27132010  0.61842527  0.50259959     0.08660
H199        H  0.35609360  0.61918790  0.49693687     0.06190
H200        H  0.35951136  0.70541398  0.49690305     0.06040
N201        N  0.61505413  0.81834942  0.54855897    -0.27350
N202        N  0.58734643  0.81033539  0.56074493    -0.35200
C203        C  0.59079353  0.82844554  0.58866060     0.00990
C204        C  0.62221622  0.84920500  0.59460278     0.07020
C205        C  0.63697587  0.84196458  0.56871783    -0.06080
H206        H  0.57153922  0.82666164  0.60320863     0.07690
H207        H  0.66172454  0.85361090  0.56407837     0.08890
Cu208      Cu  0.54515443  0.77683754  0.53885012     0.44170
Cu209      Cu  0.62099989  0.79764610  0.50372685     0.41990
Cu210      Cu  0.54674800  0.73945117  0.46080271     0.43880
N211        N  0.50495110  0.74433906  0.51255025    -0.34730
N212        N  0.50542864  0.73021811  0.48310853    -0.28990
C213        C  0.47604847  0.71047964  0.47194946    -0.05090
C214        C  0.45636120  0.71249751  0.49565589     0.07130
C215        C  0.47531572  0.73409616  0.52105566     0.00920
H216        H  0.46957670  0.69578446  0.44848632     0.08580
H217        H  0.46816688  0.74175695  0.54402017     0.07660
N218        N  0.59043292  0.75221028  0.44255136    -0.36180
N219        N  0.61729045  0.77288679  0.45750509    -0.28360
C220        C  0.64049024  0.77481503  0.43784527    -0.03600
C221        C  0.62756220  0.75443596  0.40907728     0.05010
C222        C  0.59576328  0.74054610  0.41324884     0.03100
H223        H  0.66490957  0.79005520  0.44405358     0.08210
H224        H  0.57746252  0.72288523  0.39656990     0.07040
N225        N  0.36635537  0.14729772  0.45569507    -0.27350
N226        N  0.39374846  0.15665735  0.44138083    -0.35200
C227        C  0.38974912  0.13963270  0.41212867     0.00990
C228        C  0.35824886  0.11819735  0.40749534     0.07020
C229        C  0.34407773  0.12389192  0.43566064    -0.06080
H230        H  0.40870502  0.14268006  0.39575600     0.07690
H231        H  0.31950937  0.11149676  0.44174265     0.08890
Cu232      Cu  0.43615776  0.19095526  0.46202618     0.44170
Cu233      Cu  0.36137284  0.16676940  0.50228901     0.41990
Cu234      Cu  0.43556793  0.23108336  0.53877703     0.43880
N235        N  0.47655079  0.22461205  0.48704927    -0.34730
N236        N  0.47647496  0.23973930  0.51576261    -0.28990
C237        C  0.50600824  0.25978869  0.52620145    -0.05090
C238        C  0.52535458  0.25693092  0.50280086     0.07130
C239        C  0.50606141  0.23451741  0.47832649     0.00920
H240        H  0.51280643  0.27513497  0.54909971     0.08580
H241        H  0.51288634  0.22595856  0.45593840     0.07660
N242        N  0.39195578  0.21718559  0.55853306    -0.36180
N243        N  0.36519535  0.19342303  0.54665500    -0.28360
C244        C  0.34189081  0.19126571  0.56631120    -0.03600
C245        C  0.35468543  0.21510150  0.59123821     0.05010
C246        C  0.38638613  0.23098092  0.58547934     0.03100
H247        H  0.31745143  0.17441564  0.56182703     0.08210
H248        H  0.40420888  0.25124414  0.59977750     0.07040
C249        C  0.66794935  0.30479252  0.50064026     0.03070
C250        C  0.63541304  0.28840521  0.50211163    -0.13080
C251        C  0.62016797  0.30453327  0.50199146     0.00570
C252        C  0.63748863  0.33706371  0.50038481    -0.11600
C253        C  0.67001198  0.35348772  0.49891303     0.03060
C254        C  0.68523071  0.33733697  0.49903611    -0.11020
H255        H  0.62201973  0.26321992  0.50331522     0.08660
H256        H  0.62570390  0.34954853  0.50028253     0.06190
H257        H  0.71041004  0.35003839  0.49795362     0.06040
N258        N  0.83060543  0.60779945  0.54267045    -0.27350
N259        N  0.82174967  0.58032472  0.55636485    -0.35200
C260        C  0.83818753  0.58422634  0.58611529     0.00990
C261        C  0.85858336  0.61574147  0.59194232     0.07020
C262        C  0.85317390  0.63003681  0.56363273    -0.06080
H263        H  0.83554404  0.56516897  0.60192312     0.07690
H264        H  0.86457895  0.65470900  0.55868201     0.08890
Cu265      Cu  0.78799324  0.53779580  0.53548770     0.44170
Cu266      Cu  0.81068086  0.61294804  0.49646876     0.41990
Cu267      Cu  0.74783582  0.53813786  0.45926985     0.43880
N268        N  0.75368918  0.49718682  0.51147806    -0.34730
N269        N  0.73851108  0.49722402  0.48279687    -0.28990
C270        C  0.71774238  0.46768071  0.47307557    -0.05090
C271        C  0.72017857  0.44834148  0.49691656     0.07130
C272        C  0.74309610  0.46766475  0.52092478     0.00920
H273        H  0.70213821  0.46086626  0.45041395     0.08580
H274        H  0.75147466  0.46085048  0.54351716     0.07660
N275        N  0.76068675  0.58148868  0.43980274    -0.36180
N276        N  0.78344544  0.60854736  0.45232167    -0.28360
C277        C  0.78445113  0.63149120  0.43307631    -0.03600
C278        C  0.76100002  0.61814107  0.40755233     0.05010
C279        C  0.74659666  0.58644782  0.41267304     0.03100
H280        H  0.80042594  0.65602113  0.43806336     0.08210
H281        H  0.72714394  0.56810187  0.39784328     0.07040
N282        N  0.16111997  0.75423820  0.96097956    -0.27350
N283        N  0.16711363  0.73417049  0.94702773    -0.35200
C284        C  0.14936242  0.72121621  0.91777425     0.00990
C285        C  0.13118163  0.73367119  0.91289252     0.07020
C286        C  0.13939618  0.75460755  0.94088896    -0.06080
H287        H  0.14982852  0.70398292  0.90137979     0.07690
H288        H  0.12997101  0.76874547  0.94676272     0.08890
Cu289      Cu  0.19871408  0.72463292  0.96823267     0.44170
Cu290      Cu  0.18212236  0.77967214  0.00717286     0.41990
Cu291      Cu  0.23766494  0.76540507  0.04895911     0.43880
N292        N  0.23133657  0.71905877  0.99424474    -0.34730
N293        N  0.24570104  0.73408023  0.02395013    -0.28990
C294        C  0.26547490  0.72561706  0.03409100    -0.05090
C295        C  0.26331635  0.70431214  0.00953123     0.07130
C296        C  0.24154425  0.70059892  0.98464696     0.00920
H297        H  0.28027167  0.73435156  0.05752387     0.08580
H298        H  0.23371082  0.68566961  0.96130946     0.07660
N299        N  0.22631135  0.79601073  0.06892009    -0.36180
N300        N  0.20620522  0.80141908  0.05384735    -0.28360
C301        C  0.20482444  0.82288521  0.07330423    -0.03600
C302        C  0.22508923  0.83147837  0.10214269     0.05010
C303        C  0.23823741  0.81380944  0.09828116     0.03100
H304        H  0.19030499  0.83170090  0.06656170     0.08210
H305        H  0.25559799  0.81398962  0.11511831     0.07040
C306        C  0.30999824  0.65964252  0.00890699     0.03070
C307        C  0.29290739  0.62712755  0.00705563    -0.13080
C308        C  0.30830780  0.61118233  0.00602997     0.00570
C309        C  0.34086451  0.62779754  0.00688372    -0.11600
C310        C  0.35801852  0.66033043  0.00873334     0.03060
C311        C  0.34255830  0.67624085  0.00975434    -0.11020
H312        H  0.26771218  0.61428268  0.00633279     0.08660
H313        H  0.35279857  0.61547256  0.00599967     0.06190
H314        H  0.35580125  0.70141864  0.01104575     0.06040
N315        N  0.61144580  0.81441501  0.95368109    -0.27350
N316        N  0.58384706  0.80707267  0.94186418    -0.35200
C317        C  0.58758913  0.82583499  0.91448703     0.00990
C318        C  0.61908181  0.84624428  0.90854080     0.07020
C319        C  0.63356812  0.83816467  0.93381581    -0.06080
H320        H  0.56853018  0.82476434  0.90029443     0.07690
H321        H  0.65828858  0.84938662  0.93832398     0.08890
Cu322      Cu  0.54153259  0.77350858  0.96365149     0.44170
Cu323      Cu  0.61720200  0.79301297  0.99790858     0.41990
Cu324      Cu  0.54327470  0.73480248  0.04087386     0.43880
N325        N  0.50142618  0.74058119  0.98995374    -0.34730
N326        N  0.50199661  0.72600753  0.01896207    -0.28990
C327        C  0.47266460  0.70618074  0.03025383    -0.05090
C328        C  0.45289482  0.70858870  0.00710795     0.07130
C329        C  0.47175570  0.73052435  0.98188094     0.00920
H330        H  0.46628224  0.69120731  0.05348541     0.08580
H331        H  0.46452384  0.73858330  0.95936738     0.07660
N332        N  0.58694798  0.74763024  0.05919115    -0.36180
N333        N  0.61374108  0.76840354  0.04415276    -0.28360
C334        C  0.63704715  0.77071021  0.06391670    -0.03600
C335        C  0.62426820  0.75045691  0.09286183     0.05010
C336        C  0.59242221  0.73624865  0.08867635     0.03100
H337        H  0.66143616  0.78617115  0.05768164     0.08210
H338        H  0.57419775  0.71867977  0.10554928     0.07040
O339        O  0.68246746  0.01864756  0.71551525    -0.73000
O340        O  0.65314047  0.95289530  0.79012222    -0.73980
O341        O  0.68124536  0.01767983  0.79082547    -0.62600
O342        O  0.65423345  0.95378269  0.71475193    -0.71010
O343        O  0.70033793  0.95910533  0.71447502    -0.70560
O344        O  0.72784789  0.02415353  0.79250978    -0.61820
O345        O  0.69916549  0.95805551  0.79143938    -0.74330
O346        O  0.72916650  0.02530609  0.71578822    -0.73110
Cu347      Cu  0.66630533  0.98553970  0.75276302     1.04560
Cu348      Cu  0.71588654  0.99188044  0.75356717     1.04330
C349        C  0.71035103  0.03261898  0.70387111     0.93200
C350        C  0.67115336  0.94492381  0.80275995     0.92340
C351        C  0.70862586  0.03115307  0.80383982     0.84480
C352        C  0.67256363  0.94611438  0.70241500     0.90750
O353        O  0.69584414  0.65819338  0.28935769    -0.73000
O354        O  0.66505633  0.69077947  0.21477763    -0.73980
O355        O  0.69453726  0.65743602  0.21383558    -0.62600
O356        O  0.66628817  0.69159302  0.28940501    -0.71010
O357        O  0.71214509  0.73614414  0.28950827    -0.70560
O358        O  0.74088436  0.70123875  0.21202811    -0.61820
O359        O  0.71087963  0.73527360  0.21237359    -0.74330
O360        O  0.74216885  0.70205584  0.28899352    -0.73110
Cu361      Cu  0.67903219  0.67307077  0.25190397     1.04560
Cu362      Cu  0.72830227  0.72035357  0.25070247     1.04330
C363        C  0.72359515  0.67463464  0.30125962     0.93200
C364        C  0.68263516  0.71804023  0.20195078     0.92340
C365        C  0.72183877  0.67365312  0.20058744     0.84480
C366        C  0.68422057  0.71918572  0.30109119     0.90750
O367        O  0.32137128  0.01208034  0.28753231    -0.73000
O368        O  0.28859557  0.94223025  0.21799136    -0.73980
O369        O  0.31788427  0.00717874  0.21241567    -0.62600
O370        O  0.29234197  0.94734650  0.29271881    -0.71010
O371        O  0.24562725  0.94061721  0.29412667    -0.70560
O372        O  0.27278819  0.00399412  0.21375665    -0.61820
O373        O  0.24282107  0.93775815  0.21726385    -0.74330
O374        O  0.27537553  0.00687884  0.29076131    -0.73110
Cu375      Cu  0.30649929  0.97741084  0.25258862     1.04560
Cu376      Cu  0.25739772  0.97213388  0.25402665     1.04330
C377        C  0.30382151  0.02047724  0.30056855     0.93200
C378        C  0.26068904  0.92883702  0.20660919     0.92340
C379        C  0.29996082  0.01545485  0.20034607     0.84480
C380        C  0.26506866  0.93408803  0.30599786     0.90750
O381        O  0.96429583  0.69141796  0.79196232    -0.73000
O382        O  0.03184345  0.72160276  0.71655786    -0.73980
O383        O  0.96595847  0.69388455  0.71495931    -0.62600
O384        O  0.03025294  0.71944220  0.79310599    -0.71010
O385        O  0.02423633  0.67307904  0.79000651    -0.70560
O386        O  0.95871283  0.64689682  0.71540581    -0.61820
O387        O  0.02379998  0.67436023  0.71474834    -0.74330
O388        O  0.95927998  0.64547408  0.79052384    -0.73110
Cu389      Cu  0.99833229  0.70833881  0.75419071     1.04560
Cu390      Cu  0.99127833  0.65845503  0.75258338     1.04330
C391        C  0.95121418  0.66337778  0.80319622     0.93200
C392        C  0.03848815  0.70249442  0.70393160     0.92340
C393        C  0.95186174  0.66594786  0.70334368     0.84480
C394        C  0.03762778  0.70029347  0.80351897     0.90750
O395        O  0.24152208  0.26753159  0.71219496    -0.73000
O396        O  0.27248934  0.23385598  0.78860582    -0.73980
O397        O  0.24178678  0.26715114  0.78923612    -0.62600
O398        O  0.27220702  0.23409136  0.71165220    -0.71010
O399        O  0.31717025  0.27947859  0.71130316    -0.70560
O400        O  0.28795728  0.31122475  0.78894660    -0.61820
O401        O  0.31822668  0.27840660  0.78668083    -0.74330
O402        O  0.28720956  0.31208868  0.71369628    -0.73110
Cu403      Cu  0.25526537  0.24896363  0.75045252     1.04560
Cu404      Cu  0.30409342  0.29669689  0.75021935     1.04330
C405        C  0.25978800  0.29540327  0.70098303     0.93200
C406        C  0.30063692  0.25105008  0.79932579     0.92340
C407        C  0.26032683  0.29464940  0.80122923     0.84480
C408        C  0.29959625  0.25203678  0.69896379     0.90750
C409        C  0.66429247  0.88555424  0.87054132    -0.13400
C410        C  0.63339483  0.87209365  0.88220864     0.08750
C411        C  0.61571568  0.88338249  0.86822630    -0.13400
C412        C  0.62825860  0.90708266  0.84281024    -0.13400
C413        C  0.65888649  0.92025859  0.83051283     0.08750
C414        C  0.67692958  0.90940828  0.84479328    -0.13400
H415        H  0.67849394  0.87732150  0.88081245     0.12730
H416        H  0.59210563  0.87411973  0.87703945     0.12730
H417        H  0.61373448  0.91499990  0.83270366     0.12730
H418        H  0.70062987  0.91914813  0.83590505     0.12730
C419        C  0.62319693  0.72520541  0.15085379    -0.13400
C420        C  0.64042318  0.74445006  0.12186689     0.08750
C421        C  0.67269090  0.75696056  0.12075085    -0.13400
C422        C  0.68705005  0.74946844  0.14747367    -0.13400
C423        C  0.66925967  0.72908689  0.17537345     0.08750
C424        C  0.63737035  0.71749074  0.17703665    -0.13400
H425        H  0.59853837  0.71558724  0.15339279     0.12730
H426        H  0.68674764  0.77194844  0.09894407     0.12730
H427        H  0.71173011  0.75866961  0.14564693     0.12730
H428        H  0.62320335  0.70211603  0.19860539     0.12730
C429        C  0.41951495  0.69158438  0.00858802    -0.13330
C430        C  0.39149056  0.67737723  0.00902891    -0.14890
C431        C  0.21887861  0.87321086  0.12943234    -0.13400
C432        C  0.23241543  0.85528485  0.13009782     0.08750
C433        C  0.25383254  0.86087666  0.15741720    -0.13400
C434        C  0.26240970  0.88441938  0.18245096    -0.13400
C435        C  0.24951514  0.90275515  0.18123436     0.08750
C436        C  0.22721419  0.89661467  0.15495376    -0.13400
H437        H  0.20222744  0.86959171  0.10897683     0.12730
H438        H  0.26452800  0.84747563  0.15939929     0.12730
H439        H  0.27935361  0.88841199  0.20276655     0.12730
H440        H  0.21698034  0.91051743  0.15346631     0.12730
C441        C  0.09727203  0.69928632  0.86289598    -0.13400
C442        C  0.10754649  0.72561432  0.88454852     0.08750
C443        C  0.09479633  0.74388719  0.87899486    -0.13400
C444        C  0.07226941  0.73592841  0.85247827    -0.13400
C445        C  0.06184134  0.70939478  0.83119690     0.08750
C446        C  0.07465229  0.69123118  0.83666299    -0.13400
H447        H  0.10631427  0.68449733  0.86639234     0.12730
H448        H  0.10225959  0.76443361  0.89493642     0.12730
H449        H  0.06280226  0.75036942  0.84888690     0.12730
H450        H  0.06723103  0.67072682  0.82058655     0.12730
C451        C  0.29404053  0.67590565  0.00956990    -0.13330
C452        C  0.28020927  0.68906142  0.00975633    -0.14890
C453        C  0.90579840  0.66161846  0.62100110    -0.13400
C454        C  0.88143867  0.63009427  0.62170320     0.08750
C455        C  0.87956865  0.61164424  0.65085987    -0.13400
C456        C  0.90219604  0.62375859  0.67751603    -0.13400
C457        C  0.92704444  0.65480198  0.67622302     0.08750
C458        C  0.92835843  0.67394812  0.64823713    -0.13400
H459        H  0.90793184  0.67653993  0.59902998     0.12730
H460        H  0.86084372  0.58756988  0.65310754     0.12730
H461        H  0.90037064  0.60866914  0.69917799     0.12730
H462        H  0.94738759  0.69801910  0.64672964     0.12730
C463        C  0.72136920  0.61764360  0.36793109    -0.13400
C464        C  0.75184210  0.63366036  0.38133075     0.08750
C465        C  0.77311246  0.66398152  0.36898041    -0.13400
C466        C  0.76414548  0.67764677  0.34302040    -0.13400
C467        C  0.73369605  0.66125553  0.32926866     0.08750
C468        C  0.71241775  0.63124271  0.34234423    -0.13400
H469        H  0.70420144  0.59452092  0.37732435     0.12730
H470        H  0.79679184  0.67685804  0.37881090     0.12730
H471        H  0.78104775  0.70084605  0.33353437     0.12730
H472        H  0.68869128  0.61800427  0.33265396     0.12730
C473        C  0.68774066  0.38693148  0.49757612    -0.13330
C474        C  0.70249121  0.41494927  0.49694401    -0.14890
C475        C  0.31231419  0.20108623  0.63616677    -0.13400
C476        C  0.33858310  0.22371011  0.61700858     0.08750
C477        C  0.35052252  0.25522172  0.62355686    -0.13400
C478        C  0.33715215  0.26410673  0.64950675    -0.13400
C479        C  0.31162361  0.24169125  0.66977133     0.08750
C480        C  0.29893889  0.21002620  0.66252542    -0.13400
H481        H  0.30281320  0.17660727  0.63155907     0.12730
H482        H  0.37041258  0.27308535  0.60868768     0.12730
H483        H  0.34713008  0.28868557  0.65401451     0.12730
H484        H  0.27929399  0.19228514  0.67780693     0.12730
C485        C  0.31145356  0.07668850  0.37321452    -0.13400
C486        C  0.34370681  0.09357923  0.37961596     0.08750
C487        C  0.36233450  0.08649944  0.35927106    -0.13400
C488        C  0.34922024  0.06308844  0.33354767    -0.13400
C489        C  0.31705429  0.04600094  0.32722668     0.08750
C490        C  0.29824289  0.05316353  0.34713325    -0.13400
H491        H  0.29642110  0.08162566  0.38825453     0.12730
H492        H  0.38714329  0.09858949  0.36346985     0.12730
H493        H  0.36445084  0.05827351  0.31870368     0.12730
H494        H  0.27335679  0.04036394  0.34288809     0.12730
C495        C  0.58673513  0.28773738  0.50318075    -0.13330
C496        C  0.55872961  0.27376744  0.50350821    -0.14890
C497        C  0.66738737  0.88910647  0.63226654    -0.13400
C498        C  0.63612260  0.87456507  0.62155717     0.08750
C499        C  0.61764882  0.88431370  0.63709644    -0.13400
C500        C  0.62977484  0.90755438  0.66297812    -0.13400
C501        C  0.66079900  0.92186395  0.67424239     0.08750
C502        C  0.67962080  0.91252329  0.65852271    -0.13400
H503        H  0.68222565  0.88209707  0.62080624     0.12730
H504        H  0.59370675  0.87423472  0.62915827     0.12730
H505        H  0.61458658  0.91420940  0.67426740     0.12730
H506        H  0.70364362  0.92316758  0.66659143     0.12730
C507        C  0.62620408  0.72929574  0.35098502    -0.13400
C508        C  0.64347086  0.74787227  0.38031661     0.08750
C509        C  0.67544076  0.75905081  0.38205366    -0.13400
C510        C  0.68941371  0.75083909  0.35560485    -0.13400
C511        C  0.67148492  0.73103938  0.32741978     0.08750
C512        C  0.63995938  0.72082132  0.32512026    -0.13400
H513        H  0.60181420  0.72079303  0.34794250     0.12730
H514        H  0.68949756  0.77348324  0.40416625     0.12730
H515        H  0.71382544  0.75897020  0.35787660     0.12730
H516        H  0.62576234  0.70595499  0.30327388     0.12730
C517        C  0.39494276  0.68111372  0.49503207    -0.13330
C518        C  0.42296711  0.69534009  0.49469305    -0.14890
C519        C  0.27111001  0.88165996  0.37250192    -0.13400
C520        C  0.24134741  0.86517964  0.38777546     0.08750
C521        C  0.21925488  0.87203353  0.37678354    -0.13400
C522        C  0.22674719  0.89460349  0.35033020    -0.13400
C523        C  0.25655153  0.91085104  0.33483074     0.08750
C524        C  0.27865623  0.90425880  0.34652374    -0.13400
H525        H  0.28879748  0.87730735  0.38082361     0.12730
H526        H  0.19608028  0.85956442  0.38810207     0.12730
H527        H  0.20921964  0.89914431  0.34184969     0.12730
H528        H  0.30189506  0.91639828  0.33537918     0.12730
C529        C  0.07145366  0.69152535  0.66522710    -0.13400
C530        C  0.06354198  0.71260297  0.67708155     0.08750
C531        C  0.08014713  0.74310253  0.66356543    -0.13400
C532        C  0.10411009  0.75222268  0.63861264    -0.13400
C533        C  0.11206904  0.73109823  0.62710338     0.08750
C534        C  0.09550425  0.70070687  0.64068953    -0.13400
H535        H  0.05914817  0.66784482  0.67503503     0.12730
H536        H  0.07466811  0.75989669  0.67228210     0.12730
H537        H  0.11663994  0.77586404  0.62868631     0.12730
H538        H  0.10079037  0.68377818  0.63197861     0.12730
C539        C  0.28468412  0.69394736  0.50227704    -0.13330
C540        C  0.29794981  0.68023508  0.50110338    -0.14890
C541        C  0.88794018  0.60663904  0.86611105    -0.13400
C542        C  0.87876172  0.62501531  0.88314657     0.08750
C543        C  0.89388422  0.65666825  0.87391150    -0.13400
C544        C  0.91747683  0.66947010  0.84783025    -0.13400
C545        C  0.92643773  0.65083710  0.83082158     0.08750
C546        C  0.91138941  0.61933862  0.84040818    -0.13400
H547        H  0.87732573  0.58236215  0.87282209     0.12730
H548        H  0.88728013  0.67143369  0.88649311     0.12730
H549        H  0.92866593  0.69383092  0.84103182     0.12730
H550        H  0.91768452  0.60425443  0.82799805     0.12730
C551        C  0.71625611  0.61654036  0.13179123    -0.13400
C552        C  0.74671681  0.63144395  0.11849390     0.08750
C553        C  0.76911855  0.66112801  0.13151207    -0.13400
C554        C  0.76124926  0.67521837  0.15811655    -0.13400
C555        C  0.73080490  0.65988097  0.17185733     0.08750
C556        C  0.70839591  0.63056657  0.15803118    -0.13400
H557        H  0.69830483  0.59395260  0.12184020     0.12730
H558        H  0.79281858  0.67310546  0.12174708     0.12730
H559        H  0.77899940  0.69786348  0.16818022     0.12730
H560        H  0.68462537  0.61821871  0.16762676     0.12730
C561        C  0.68301900  0.38294550  0.00834889    -0.13330
C562        C  0.69708558  0.41094779  0.00792207    -0.14890
C563        C  0.88357645  0.25957826  0.13799070    -0.13400
C564        C  0.86553314  0.22875884  0.12609888     0.08750
C565        C  0.87210624  0.20694412  0.13895640    -0.13400
C566        C  0.89601169  0.21581476  0.16395539    -0.13400
C567        C  0.91386083  0.24670536  0.17608111     0.08750
C568        C  0.90750321  0.26847369  0.16250629    -0.13400
H569        H  0.87942425  0.27701549  0.12807632     0.12730
H570        H  0.85842681  0.18298820  0.13020235     0.12730
H571        H  0.90033326  0.19851900  0.17397450     0.12730
H572        H  0.92090048  0.29251327  0.17100494     0.12730
C573        C  0.75497278  0.09272275  0.87462126    -0.13400
C574        C  0.73336358  0.10023196  0.88558024     0.08750
C575        C  0.70386921  0.08485981  0.86961682    -0.13400
C576        C  0.69602834  0.06243146  0.84331124    -0.13400
C577        C  0.71757095  0.05493515  0.83204731     0.08750
C578        C  0.74719522  0.07035345  0.84792385    -0.13400
H579        H  0.77796183  0.10437163  0.88635688     0.12730
H580        H  0.68656385  0.08979601  0.87780331     0.12730
H581        H  0.67296403  0.05096446  0.83178439     0.12730
H582        H  0.76430645  0.06512600  0.83977000     0.12730
C583        C  0.69488882  0.27186282  0.00918993    -0.13330
C584        C  0.68157713  0.28554228  0.00893181    -0.14890
C585        C  0.88292375  0.21651636  0.37990972    -0.13400
C586        C  0.86959329  0.23443111  0.38397897     0.08750
C587        C  0.87891331  0.25958298  0.36064167    -0.13400
C588        C  0.90128477  0.26701159  0.33434505    -0.13400
C589        C  0.91486314  0.24939895  0.33043652     0.08750
C590        C  0.90524930  0.22383661  0.35321441    -0.13400
H591        H  0.87611938  0.19683387  0.39722126     0.12730
H592        H  0.86942562  0.27407501  0.36295260     0.12730
H593        H  0.90801132  0.28672114  0.31705719     0.12730
H594        H  0.91532919  0.20984856  0.35078614     0.12730
C595        C  0.70828840  0.08853326  0.63899142    -0.13400
C596        C  0.73897244  0.10575333  0.62626385     0.08750
C597        C  0.76035255  0.09844580  0.63874980    -0.13400
C598        C  0.75121993  0.07459338  0.66390200    -0.13400
C599        C  0.72048406  0.05749902  0.67673278     0.08750
C600        C  0.69913765  0.06467207  0.66379491    -0.13400
H601        H  0.69111445  0.09321452  0.62950616     0.12730
H602        H  0.78420336  0.11143816  0.62950650     0.12730
H603        H  0.76822257  0.06966572  0.67341756     0.12730
H604        H  0.67524578  0.05190585  0.67292690     0.12730
C605        C  0.69689002  0.27450674  0.50116078    -0.13330
C606        C  0.68362367  0.28823436  0.50086720    -0.14890
C607        C  0.08429635  0.30218187  0.13376779    -0.13400
C608        C  0.09414490  0.33127968  0.11842063     0.08750
C609        C  0.07989142  0.34703465  0.12942225    -0.13400
C610        C  0.05716671  0.33472265  0.15594908    -0.13400
C611        C  0.04792643  0.30622883  0.17239506     0.08750
C612        C  0.06135501  0.28974340  0.16068661    -0.13400
H613        H  0.09490386  0.28952787  0.12571081     0.12730
H614        H  0.08631672  0.36908405  0.11757112     0.12730
H615        H  0.04697657  0.34783159  0.16374492     0.12730
H616        H  0.05457640  0.26764782  0.17272800     0.12730
C617        C  0.25967272  0.35321500  0.86258062    -0.13400
C618        C  0.23225521  0.33486629  0.88247438     0.08750
C619        C  0.21383710  0.30276953  0.87541364    -0.13400
C620        C  0.22264754  0.28946281  0.84885100    -0.13400
C621        C  0.25018553  0.30798648  0.82917635     0.08750
C622        C  0.26852508  0.33996857  0.83640537    -0.13400
H623        H  0.27471614  0.37789946  0.86737774     0.12730
H624        H  0.19250704  0.28797207  0.89011978     0.12730
H625        H  0.20806114  0.26471604  0.84388960     0.12730
H626        H  0.28984003  0.35495491  0.82169412     0.12730
C627        C  0.27577551  0.54976705  0.00261676    -0.13330
C628        C  0.29066981  0.57776393  0.00404801    -0.14890
C629        C  0.35911387  0.24544942  0.85513409    -0.13400
C630        C  0.34031335  0.22166165  0.87967094     0.08750
C631        C  0.30777578  0.20655709  0.87666504    -0.13400
C632        C  0.29453321  0.21545206  0.85007356    -0.13400
C633        C  0.31361524  0.23979311  0.82631430     0.08750
C634        C  0.34597109  0.25443122  0.82899783    -0.13400
H635        H  0.38416775  0.25766901  0.85609736     0.12730
H636        H  0.29250538  0.18806468  0.89491747     0.12730
H637        H  0.26947092  0.20379101  0.84860070     0.12730
H638        H  0.36130943  0.27305538  0.81084039     0.12730
C639        C  0.30688017  0.07377125  0.13077817    -0.13400
C640        C  0.33718687  0.08566983  0.11785682     0.08750
C641        C  0.35403472  0.07317429  0.13095536    -0.13400
C642        C  0.34146927  0.05009179  0.15706372    -0.13400
C643        C  0.31163893  0.03875776  0.17103713     0.08750
C644        C  0.29421665  0.05053764  0.15733357    -0.13400
H645        H  0.29334961  0.08297137  0.12109648     0.12730
H646        H  0.37710970  0.08119728  0.12106349     0.12730
H647        H  0.35548897  0.04139486  0.16659841     0.12730
H648        H  0.27112501  0.04218786  0.16747989     0.12730
C649        C  0.58340692  0.28230484  0.00356839    -0.13330
C650        C  0.55540078  0.26773085  0.00241235    -0.14890
C651        C  0.08456853  0.35269481  0.37008103    -0.13400
C652        C  0.09699579  0.33601048  0.38393269     0.08750
C653        C  0.08509510  0.30552979  0.37172037    -0.13400
C654        C  0.06172177  0.29239755  0.34541438    -0.13400
C655        C  0.04983449  0.30953683  0.33114887     0.08750
C656        C  0.06137015  0.33967580  0.34413519    -0.13400
H657        H  0.09260988  0.37591473  0.37937150     0.12730
H658        H  0.09425409  0.29211549  0.38193054     0.12730
H659        H  0.05321512  0.26907647  0.33603606     0.12730
H660        H  0.05255272  0.35346662  0.33415547     0.12730
C661        C  0.26142627  0.35399827  0.63748465    -0.13400
C662        C  0.23277691  0.33658270  0.61971785     0.08750
C663        C  0.21271924  0.30503671  0.62877150    -0.13400
C664        C  0.22113724  0.29138760  0.65538306    -0.13400
C665        C  0.24984945  0.30903732  0.67312586     0.08750
C666        C  0.26983487  0.34044273  0.66373344    -0.13400
H667        H  0.27773010  0.37816636  0.63092690     0.12730
H668        H  0.19041942  0.29101246  0.61563893     0.12730
H669        H  0.20528504  0.26709977  0.66196561     0.12730
H670        H  0.29219500  0.35475972  0.67669252     0.12730
C671        C  0.27933105  0.55361390  0.50168774    -0.13330
C672        C  0.29407127  0.58163779  0.50097756    -0.14890
loop_ 
_geom_bond_atom_site_label_1 
_geom_bond_atom_site_label_2 
_geom_bond_distance 
_geom_bond_site_symmetry_2 
_ccdc_geom_bond_type 
N1            N2   1.322       .  A
N1            C5   1.349       .  A
N1           Cu9   2.083       .  S
N2            C3   1.340       .  A
N2           Cu8   2.068       .  S
C3            C4   1.384       .  A
C3            H6   1.082       .  S
C4            C5   1.388       .  A
C4          C652   1.482       .  S
C5            H7   1.082       .  S
Cu8          N11   2.067       .  S
Cu9          N19   2.083       .  S
Cu10         N12   2.069       .  S
Cu10         N18   2.070       .  S
N11          N12   1.321       .  A
N11          C15   1.345       .  A
N12          C13   1.346       .  A
C13          C14   1.381       .  A
C13          H16   1.082       .  S
C14          C15   1.380       .  A
C14         C671   1.437       .  S
C15          H17   1.082       .  S
N18          N19   1.323       .  A
N18          C22   1.340       .  A
N19          C20   1.348       .  A
C20          C21   1.388       .  A
C20          H23   1.081       .  S
C21          C22   1.385       .  A
C21         C662   1.483       .  S
C22          H24   1.081       .  S
N25          N26   1.322       .  A
N25          C29   1.350       .  A
N25         Cu33   2.086       .  S
N26          C27   1.339       .  A
N26         Cu32   2.066       .  S
C27          C28   1.383       .  A
C27          H30   1.082       .  S
C28          C29   1.389       .  A
C28         C640   1.482       .  S
C29          H31   1.082       .  S
Cu32         N35   2.065       .  S
Cu33         N43   2.086   1_554  S
Cu34         N36   2.067       .  S
Cu34         N42   2.069       .  S
N35          N36   1.320   1_554  A
N35          C39   1.345       .  A
N36          C37   1.346       .  A
C37          C38   1.381   1_556  A
C37          H40   1.082       .  S
C38          C39   1.380       .  A
C38         C650   1.437       .  S
C39          H41   1.082       .  S
N42          N43   1.322       .  A
N42          C46   1.340       .  A
N43          C44   1.349       .  A
C44          C45   1.391       .  A
C44          H47   1.081       .  S
C45          C46   1.386       .  A
C45         C630   1.488       .  S
C46          H48   1.080       .  S
N49          N50   1.323       .  A
N49          C53   1.351       .  A
N49         Cu57   2.087       .  S
N50          C51   1.339       .  A
N50         Cu56   2.067       .  S
C51          C52   1.383       .  A
C51          H54   1.082       .  S
C52          C53   1.389       .  A
C52         C608   1.481       .  S
C53          H55   1.082       .  S
Cu56         N59   2.066       .  S
Cu57         N67   2.087   1_554  S
Cu58         N60   2.068       .  S
Cu58         N66   2.069       .  S
N59          N60   1.320   1_554  A
N59          C63   1.345       .  A
N60          C61   1.346       .  A
C61          C62   1.381   1_556  A
C61          H64   1.082       .  S
C62          C63   1.380       .  A
C62         C627   1.437       .  S
C63          H65   1.082       .  S
N66          N67   1.323       .  A
N66          C70   1.341       .  A
N67          C68   1.349       .  A
C68          C69   1.389       .  A
C68          H71   1.081       .  S
C69          C70   1.385       .  A
C69         C618   1.485       .  S
C70          H72   1.081       .  S
N73          N74   1.321       .  A
N73          C77   1.346       .  A
N73         Cu81   2.074       .  S
N74          C75   1.342       .  A
N74         Cu80   2.072       .  S
C75          C76   1.387       .  A
C75          H78   1.081       .  S
C76          C77   1.387       .  A
C76         C586   1.484       .  S
C77          H79   1.082       .  S
Cu80         N83   2.071       .  S
Cu81         N91   2.074       .  S
Cu82         N84   2.072       .  S
Cu82         N90   2.072       .  S
N83          N84   1.322       .  A
N83          C87   1.345       .  A
N84          C85   1.346       .  A
C85          C86   1.380       .  A
C85          H88   1.082       .  S
C86          C87   1.380       .  A
C86         C605   1.437       .  S
C87          H89   1.082       .  S
N90          N91   1.322       .  A
N90          C94   1.343       .  A
N91          C92   1.346       .  A
C92          C93   1.385       .  A
C92          H95   1.082       .  S
C93          C94   1.385       .  A
C93         C596   1.480       .  S
C94          H96   1.082       .  S
N97          N98   1.322       .  A
N97         C101   1.346       .  A
N97        Cu105   2.068       .  S
N98          C99   1.342       .  A
N98        Cu104   2.072       .  S
C99         C100   1.385       .  A
C99         H102   1.082       .  S
C100        C101   1.384       .  A
C100        C564   1.476       .  S
C101        H103   1.082       .  S
Cu104       N107   2.071       .  S
Cu105       N115   2.069   1_554  S
Cu106       N108   2.072       .  S
Cu106       N114   2.073       .  S
N107        N108   1.322   1_554  A
N107        C111   1.346       .  A
N108        C109   1.345       .  A
C109        C110   1.379   1_556  A
C109        H112   1.082       .  S
C110        C111   1.380       .  A
C110        C583   1.437       .  S
C111        H113   1.082       .  S
N114        N115   1.322       .  A
N114        C118   1.343       .  A
N115        C116   1.345       .  A
C116        C117   1.384       .  A
C116        H119   1.082       .  S
C117        C118   1.386       .  A
C117        C574   1.478       .  S
C118        H120   1.082       .  S
C121        C122   1.401       .  A
C121        C126   1.402       .  A
C121        C584   1.440       .  S
C122        C123   1.401       .  A
C122        H127   1.085       .  S
C123        C124   1.401       .  A
C123        C649   1.440       .  S
C124        C125   1.401       .  A
C124        H128   1.084       .  S
C125        C126   1.402       .  A
C125        C561   1.440       .  S
C126        H129   1.085       .  S
N130        N131   1.322       .  A
N130        C134   1.349       .  A
N130       Cu138   2.081   1_556  S
N131        C132   1.340       .  A
N131       Cu137   2.068       .  S
C132        C133   1.385       .  A
C132        H135   1.081       .  S
C133        C134   1.389       .  A
C133        C542   1.484       .  S
C134        H136   1.082       .  S
Cu137       N140   2.067       .  S
Cu138       N148   2.082       .  S
Cu139       N141   2.070       .  S
Cu139       N147   2.071       .  S
N140        N141   1.321   1_556  A
N140        C144   1.345       .  A
N141        C142   1.346       .  A
C142        C143   1.381       .  A
C142        H145   1.082       .  S
C143        C144   1.379   1_554  A
C143        C562   1.437       .  S
C144        H146   1.082       .  S
N147        N148   1.323       .  A
N147        C151   1.341       .  A
N148        C149   1.348       .  A
C149        C150   1.387       .  A
C149        H152   1.082       .  S
C150        C151   1.383       .  A
C150        C552   1.479       .  S
C151        H153   1.082       .  S
O154       Cu162   2.031   1_455  S
O154        C164   1.280       .  A
O155       Cu162   2.031       .  S
O155        C165   1.281       .  A
O156       Cu162   2.034   1_455  S
O156        C166   1.281       .  A
O157       Cu162   2.030       .  S
O157        C167   1.281       .  A
O158       Cu163   1.986       .  S
O158        C167   1.276       .  A
O159       Cu163   1.985   1_455  S
O159        C166   1.276       .  A
O160       Cu163   1.980       .  S
O160        C165   1.275       .  A
O161       Cu163   1.985   1_455  S
O161        C164   1.276       .  A
Cu162      Cu163   2.369       .  S
C164        C655   1.482       .  S
C165        C567   1.480       .  S
C166        C611   1.483       .  S
C167        C589   1.479       .  S
N168        N169   1.321       .  A
N168        C172   1.346       .  A
N168       Cu176   2.067       .  S
N169        C170   1.342       .  A
N169       Cu175   2.073       .  S
C170        C171   1.386       .  A
C170        H173   1.082       .  S
C171        C172   1.384       .  A
C171        C520   1.478       .  S
C172        H174   1.082       .  S
Cu175       N178   2.072       .  S
Cu176       N186   2.067       .  S
Cu177       N179   2.073       .  S
Cu177       N185   2.074       .  S
N178        N179   1.323       .  A
N178        C182   1.345       .  A
N179        C180   1.346       .  A
C180        C181   1.380       .  A
C180        H183   1.082       .  S
C181        C182   1.379       .  A
C181        C539   1.437       .  S
C182        H184   1.082       .  S
N185        N186   1.322       .  A
N185        C189   1.343       .  A
N186        C187   1.344       .  A
C187        C188   1.384       .  A
C187        H190   1.082       .  S
C188        C189   1.386       .  A
C188        C533   1.478       .  S
C189        H191   1.082       .  S
C192        C193   1.402       .  A
C192        C197   1.402       .  A
C192        C540   1.440       .  S
C193        C194   1.401       .  A
C193        H198   1.085       .  S
C194        C195   1.402       .  A
C194        C672   1.440       .  S
C195        C196   1.401       .  A
C195        H199   1.084       .  S
C196        C197   1.402       .  A
C196        C517   1.440       .  S
C197        H200   1.085       .  S
N201        N202   1.322       .  A
N201        C205   1.350       .  A
N201       Cu209   2.084       .  S
N202        C203   1.339       .  A
N202       Cu208   2.067       .  S
C203        C204   1.384       .  A
C203        H206   1.081       .  S
C204        C205   1.389       .  A
C204        C498   1.484       .  S
C205        H207   1.082       .  S
Cu208       N211   2.066       .  S
Cu209       N219   2.084       .  S
Cu210       N212   2.069       .  S
Cu210       N218   2.071       .  S
N211        N212   1.320       .  A
N211        C215   1.345       .  A
N212        C213   1.346       .  A
C213        C214   1.381       .  A
C213        H216   1.082       .  S
C214        C215   1.380       .  A
C214        C518   1.437       .  S
C215        H217   1.082       .  S
N218        N219   1.323       .  A
N218        C222   1.339       .  A
N219        C220   1.349       .  A
C220        C221   1.390       .  A
C220        H223   1.081       .  S
C221        C222   1.386       .  A
C221        C508   1.486       .  S
C222        H224   1.081       .  S
N225        N226   1.321       .  A
N225        C229   1.349       .  A
N225       Cu233   2.083       .  S
N226        C227   1.340       .  A
N226       Cu232   2.067       .  S
C227        C228   1.386       .  A
C227        H230   1.081       .  S
C228        C229   1.390       .  A
C228        C486   1.486       .  S
C229        H231   1.081       .  S
Cu232       N235   2.066       .  S
Cu233       N243   2.083       .  S
Cu234       N236   2.071       .  S
Cu234       N242   2.072       .  S
N235        N236   1.321       .  A
N235        C239   1.344       .  A
N236        C237   1.346       .  A
C237        C238   1.381       .  A
C237        H240   1.082       .  S
C238        C239   1.379       .  A
C238        C496   1.437       .  S
C239        H241   1.082       .  S
N242        N243   1.324       .  A
N242        C246   1.341       .  A
N243        C244   1.349       .  A
C244        C245   1.385       .  A
C244        H247   1.082       .  S
C245        C246   1.381       .  A
C245        C476   1.475       .  S
C246        H248   1.082       .  S
C249        C250   1.402       .  A
C249        C254   1.402       .  A
C249        C606   1.440       .  S
C250        C251   1.402       .  A
C250        H255   1.085       .  S
C251        C252   1.401       .  A
C251        C495   1.440       .  S
C252        C253   1.401       .  A
C252        H256   1.084       .  S
C253        C254   1.401       .  A
C253        C473   1.440       .  S
C254        H257   1.085       .  S
N258        N259   1.322       .  A
N258        C262   1.350       .  A
N258       Cu266   2.086       .  S
N259        C260   1.339       .  A
N259       Cu265   2.066       .  S
C260        C261   1.385       .  A
C260        H263   1.081       .  S
C261        C262   1.391       .  A
C261        C454   1.487       .  S
C262        H264   1.081       .  S
Cu265       N268   2.065       .  S
Cu266       N276   2.086       .  S
Cu267       N269   2.069       .  S
Cu267       N275   2.070       .  S
N268        N269   1.320       .  A
N268        C272   1.345       .  A
N269        C270   1.346       .  A
C270        C271   1.381       .  A
C270        H273   1.082       .  S
C271        C272   1.380       .  A
C271        C474   1.437       .  S
C272        H274   1.082       .  S
N275        N276   1.323       .  A
N275        C279   1.340       .  A
N276        C277   1.349       .  A
C277        C278   1.388       .  A
C277        H280   1.082       .  S
C278        C279   1.383       .  A
C278        C464   1.481       .  S
C279        H281   1.082       .  S
N282        N283   1.321       .  A
N282        C286   1.345       .  A
N282       Cu290   2.075   1_556  S
N283        C284   1.343       .  A
N283       Cu289   2.072       .  S
C284        C285   1.388       .  A
C284        H287   1.081       .  S
C285        C286   1.388       .  A
C285        C442   1.485       .  S
C286        H288   1.081       .  S
Cu289       N292   2.072       .  S
Cu290       N300   2.075       .  S
Cu291       N293   2.071       .  S
Cu291       N299   2.072       .  S
N292        N293   1.322   1_556  A
N292        C296   1.345       .  A
N293        C294   1.346       .  A
C294        C295   1.379       .  A
C294        H297   1.082       .  S
C295        C296   1.379   1_554  A
C295        C452   1.436       .  S
C296        H298   1.082       .  S
N299        N300   1.321       .  A
N299        C303   1.342       .  A
N300        C301   1.346       .  A
C301        C302   1.389       .  A
C301        H304   1.081       .  S
C302        C303   1.389       .  A
C302        C432   1.488       .  S
C303        H305   1.081       .  S
C306        C307   1.401       .  A
C306        C311   1.402       .  A
C306        C451   1.440       .  S
C307        C308   1.401       .  A
C307        H312   1.085       .  S
C308        C309   1.401       .  A
C308        C628   1.440       .  S
C309        C310   1.402       .  A
C309        H313   1.084       .  S
C310        C311   1.402       .  A
C310        C430   1.441       .  S
C311        H314   1.085       .  S
N315        N316   1.322       .  A
N315        C319   1.349       .  A
N315       Cu323   2.082       .  S
N316        C317   1.340       .  A
N316       Cu322   2.068       .  S
C317        C318   1.384       .  A
C317        H320   1.081       .  S
C318        C319   1.388       .  A
C318        C410   1.483       .  S
C319        H321   1.082       .  S
Cu322       N325   2.067       .  S
Cu323       N333   2.082   1_556  S
Cu324       N326   2.070       .  S
Cu324       N332   2.071       .  S
N325        N326   1.321   1_556  A
N325        C329   1.345       .  A
N326        C327   1.346       .  A
C327        C328   1.381       .  A
C327        H330   1.082       .  S
C328        C329   1.380   1_554  A
C328        C429   1.438       .  S
C329        H331   1.082       .  S
N332        N333   1.322       .  A
N332        C336   1.340       .  A
N333        C334   1.348       .  A
C334        C335   1.390       .  A
C334        H337   1.081       .  S
C335        C336   1.387       .  A
C335        C420   1.487       .  S
C336        H338   1.080       .  S
O339       Cu347   1.990   1_545  S
O339        C349   1.276       .  A
O340       Cu347   1.989       .  S
O340        C350   1.277       .  A
O341       Cu347   1.986   1_545  S
O341        C351   1.276       .  A
O342       Cu347   1.986       .  S
O342        C352   1.276       .  A
O343       Cu348   2.031       .  S
O343        C352   1.280       .  A
O344       Cu348   2.028   1_545  S
O344        C351   1.281       .  A
O345       Cu348   2.028       .  S
O345        C350   1.280       .  A
O346       Cu348   2.026   1_545  S
O346        C349   1.280       .  A
Cu347      Cu348   2.369       .  S
C349        C599   1.481       .  S
C350        C413   1.482       .  S
C351        C577   1.481       .  S
C352        C501   1.482       .  S
O353       Cu361   1.988       .  S
O353        C363   1.276       .  A
O354       Cu361   1.981       .  S
O354        C364   1.275       .  A
O355       Cu361   1.987       .  S
O355        C365   1.276       .  A
O356       Cu361   1.981       .  S
O356        C366   1.275       .  A
O357       Cu362   2.032       .  S
O357        C366   1.280       .  A
O358       Cu362   2.027       .  S
O358        C365   1.280       .  A
O359       Cu362   2.032       .  S
O359        C364   1.280       .  A
O360       Cu362   2.028       .  S
O360        C363   1.280       .  A
Cu361      Cu362   2.372       .  S
C363        C467   1.482       .  S
C364        C423   1.474       .  S
C365        C555   1.481       .  S
C366        C511   1.473       .  S
O367       Cu375   1.990   1_545  S
O367        C377   1.277       .  A
O368       Cu375   1.990       .  S
O368        C378   1.276       .  A
O369       Cu375   1.983   1_545  S
O369        C379   1.276       .  A
O370       Cu375   1.979       .  S
O370        C380   1.275       .  A
O371       Cu376   2.034       .  S
O371        C380   1.281       .  A
O372       Cu376   2.034   1_545  S
O372        C379   1.281       .  A
O373       Cu376   2.027       .  S
O373        C378   1.280       .  A
O374       Cu376   2.029   1_545  S
O374        C377   1.280       .  A
Cu375      Cu376   2.369       .  S
C377        C489   1.482       .  S
C378        C435   1.475       .  S
C379        C643   1.483       .  S
C380        C523   1.481       .  S
O381       Cu389   2.032       .  S
O381        C391   1.281       .  A
O382       Cu389   2.025   1_455  S
O382        C392   1.280       .  A
O383       Cu389   2.025       .  S
O383        C393   1.279       .  A
O384       Cu389   2.021   1_455  S
O384        C394   1.280       .  A
O385       Cu390   1.996   1_455  S
O385        C394   1.277       .  A
O386       Cu390   1.994       .  S
O386        C393   1.277       .  A
O387       Cu390   1.987   1_455  S
O387        C392   1.276       .  A
O388       Cu390   1.984       .  S
O388        C391   1.276       .  A
Cu389      Cu390   2.371       .  S
C391        C545   1.482       .  S
C392        C530   1.480       .  S
C393        C457   1.475       .  S
C394        C445   1.480       .  S
O395       Cu403   2.032       .  S
O395        C405   1.281       .  A
O396       Cu403   2.027       .  S
O396        C406   1.280       .  A
O397       Cu403   2.026       .  S
O397        C407   1.280       .  A
O398       Cu403   2.028       .  S
O398        C408   1.280       .  A
O399       Cu404   1.987       .  S
O399        C408   1.276       .  A
O400       Cu404   1.991       .  S
O400        C407   1.276       .  A
O401       Cu404   1.988       .  S
O401        C406   1.276       .  A
O402       Cu404   1.983       .  S
O402        C405   1.276       .  A
Cu403      Cu404   2.371       .  S
C405        C665   1.481       .  S
C406        C633   1.478       .  S
C407        C621   1.481       .  S
C408        C479   1.478       .  S
C409        C410   1.407       .  A
C409        C414   1.405       .  A
C409        H415   1.083       .  S
C410        C411   1.404       .  A
C411        C412   1.391       .  A
C411        H416   1.081       .  S
C412        C413   1.404       .  A
C412        H417   1.083       .  S
C413        C414   1.407       .  A
C414        H418   1.082       .  S
C419        C420   1.405       .  A
C419        C424   1.390       .  A
C419        H425   1.081       .  S
C420        C421   1.410       .  A
C421        C422   1.405       .  A
C421        H426   1.081       .  S
C422        C423   1.404       .  A
C422        H427   1.083       .  S
C423        C424   1.401       .  A
C424        H428   1.083       .  S
C429        C430   1.206       .  T
C431        C432   1.410       .  A
C431        C436   1.403       .  A
C431        H437   1.081       .  S
C432        C433   1.406       .  A
C433        C434   1.393       .  A
C433        H438   1.081       .  S
C434        C435   1.402       .  A
C434        H439   1.083       .  S
C435        C436   1.403       .  A
C436        H440   1.083       .  S
C441        C442   1.405       .  A
C441        C446   1.395       .  A
C441        H447   1.082       .  S
C442        C443   1.408       .  A
C443        C444   1.400       .  A
C443        H448   1.081       .  S
C444        C445   1.404       .  A
C444        H449   1.083       .  S
C445        C446   1.405       .  A
C446        H450   1.082       .  S
C451        C452   1.206       .  T
C453        C454   1.409       .  A
C453        C458   1.405       .  A
C453        H459   1.082       .  S
C454        C455   1.406       .  A
C455        C456   1.391       .  A
C455        H460   1.081       .  S
C456        C457   1.400       .  A
C456        H461   1.084       .  S
C457        C458   1.405       .  A
C458        H462   1.083       .  S
C463        C464   1.403       .  A
C463        C468   1.392       .  A
C463        H469   1.082       .  S
C464        C465   1.406       .  A
C465        C466   1.404       .  A
C465        H470   1.083       .  S
C466        C467   1.407       .  A
C466        H471   1.083       .  S
C467        C468   1.405       .  A
C468        H472   1.083       .  S
C473        C474   1.206       .  T
C475        C476   1.405       .  A
C475        C480   1.404       .  A
C475        H481   1.083       .  S
C476        C477   1.401       .  A
C477        C478   1.391       .  A
C477        H482   1.083       .  S
C478        C479   1.405       .  A
C478        H483   1.083       .  S
C479        C480   1.406       .  A
C480        H484   1.083       .  S
C485        C486   1.408       .  A
C485        C490   1.405       .  A
C485        H491   1.082       .  S
C486        C487   1.405       .  A
C487        C488   1.392       .  A
C487        H492   1.080       .  S
C488        C489   1.404       .  A
C488        H493   1.083       .  S
C489        C490   1.406       .  A
C490        H494   1.083       .  S
C495        C496   1.206       .  T
C497        C498   1.408       .  A
C497        C502   1.405       .  A
C497        H503   1.082       .  S
C498        C499   1.404       .  A
C499        C500   1.390       .  A
C499        H504   1.081       .  S
C500        C501   1.404       .  A
C500        H505   1.083       .  S
C501        C502   1.407       .  A
C502        H506   1.082       .  S
C507        C508   1.405       .  A
C507        C512   1.390       .  A
C507        H513   1.081       .  S
C508        C509   1.410       .  A
C509        C510   1.405       .  A
C509        H514   1.082       .  S
C510        C511   1.404       .  A
C510        H515   1.083       .  S
C511        C512   1.401       .  A
C512        H516   1.084       .  S
C517        C518   1.206       .  T
C519        C520   1.401       .  A
C519        C524   1.391       .  A
C519        H525   1.083       .  S
C520        C521   1.407       .  A
C521        C522   1.403       .  A
C521        H526   1.082       .  S
C522        C523   1.406       .  A
C522        H527   1.083       .  S
C523        C524   1.406       .  A
C524        H528   1.082       .  S
C529        C530   1.406       .  A
C529        C534   1.393       .  A
C529        H535   1.082       .  S
C530        C531   1.405       .  A
C531        C532   1.401       .  A
C531        H536   1.083       .  S
C532        C533   1.406       .  A
C532        H537   1.082       .  S
C533        C534   1.402       .  A
C534        H538   1.083       .  S
C539        C540   1.206       .  T
C541        C542   1.404       .  A
C541        C546   1.391       .  A
C541        H547   1.081       .  S
C542        C543   1.408       .  A
C543        C544   1.405       .  A
C543        H548   1.082       .  S
C544        C545   1.407       .  A
C544        H549   1.082       .  S
C545        C546   1.404       .  A
C546        H550   1.083       .  S
C551        C552   1.402       .  A
C551        C556   1.391       .  A
C551        H557   1.082       .  S
C552        C553   1.406       .  A
C553        C554   1.403       .  A
C553        H558   1.083       .  S
C554        C555   1.407       .  A
C554        H559   1.083       .  S
C555        C556   1.405       .  A
C556        H560   1.083       .  S
C561        C562   1.206       .  T
C563        C564   1.401       .  A
C563        C568   1.391       .  A
C563        H569   1.083       .  S
C564        C565   1.406       .  A
C565        C566   1.403       .  A
C565        H570   1.082       .  S
C566        C567   1.406       .  A
C566        H571   1.083       .  S
C567        C568   1.406       .  A
C568        H572   1.082       .  S
C573        C574   1.406       .  A
C573        C578   1.402       .  A
C573        H579   1.082       .  S
C574        C575   1.402       .  A
C575        C576   1.393       .  A
C575        H580   1.083       .  S
C576        C577   1.406       .  A
C576        H581   1.082       .  S
C577        C578   1.406       .  A
C578        H582   1.083       .  S
C583        C584   1.206       .  T
C585        C586   1.408       .  A
C585        C590   1.403       .  A
C585        H591   1.081       .  S
C586        C587   1.404       .  A
C587        C588   1.393       .  A
C587        H592   1.082       .  S
C588        C589   1.404       .  A
C588        H593   1.083       .  S
C589        C590   1.404       .  A
C590        H594   1.083       .  S
C595        C596   1.403       .  A
C595        C600   1.393       .  A
C595        H601   1.083       .  S
C596        C597   1.406       .  A
C597        C598   1.402       .  A
C597        H602   1.082       .  S
C598        C599   1.406       .  A
C598        H603   1.083       .  S
C599        C600   1.406       .  A
C600        H604   1.082       .  S
C605        C606   1.206       .  T
C607        C608   1.407       .  A
C607        C612   1.407       .  A
C607        H613   1.083       .  S
C608        C609   1.402       .  A
C609        C610   1.390       .  A
C609        H614   1.082       .  S
C610        C611   1.404       .  A
C610        H615   1.083       .  S
C611        C612   1.408       .  A
C612        H616   1.082       .  S
C617        C618   1.405       .  A
C617        C622   1.392       .  A
C617        H623   1.081       .  S
C618        C619   1.408       .  A
C619        C620   1.403       .  A
C619        H624   1.082       .  S
C620        C621   1.406       .  A
C620        H625   1.083       .  S
C621        C622   1.404       .  A
C622        H626   1.083       .  S
C627        C628   1.206       .  T
C629        C630   1.406       .  A
C629        C634   1.391       .  A
C629        H635   1.080       .  S
C630        C631   1.409       .  A
C631        C632   1.404       .  A
C631        H636   1.081       .  S
C632        C633   1.405       .  A
C632        H637   1.083       .  S
C633        C634   1.402       .  A
C634        H638   1.083       .  S
C639        C640   1.407       .  A
C639        C644   1.406       .  A
C639        H645   1.083       .  S
C640        C641   1.403       .  A
C641        C642   1.390       .  A
C641        H646   1.082       .  S
C642        C643   1.405       .  A
C642        H647   1.083       .  S
C643        C644   1.408       .  A
C644        H648   1.082       .  S
C649        C650   1.206       .  T
C651        C652   1.403       .  A
C651        C656   1.390       .  A
C651        H657   1.081       .  S
C652        C653   1.407       .  A
C653        C654   1.405       .  A
C653        H658   1.083       .  S
C654        C655   1.407       .  A
C654        H659   1.082       .  S
C655        C656   1.405       .  A
C656        H660   1.083       .  S
C661        C662   1.403       .  A
C661        C666   1.391       .  A
C661        H667   1.082       .  S
C662        C663   1.408       .  A
C663        C664   1.404       .  A
C663        H668   1.082       .  S
C664        C665   1.406       .  A
C664        H669   1.083       .  S
C665        C666   1.405       .  A
C666        H670   1.083       .  S
C671        C672   1.206       .  T
