geometry optimzed in LAMMPS
_audit_creation_date              2020-12-01 
_audit_creation_method            'lammps2cif' 
_symmetry_space_group_name_H-M    'P1' 
_symmetry_Int_Tables_number       1 
_symmetry_cell_setting            triclinic 
loop_ 
_symmetry_equiv_pos_as_xyz 
  x,y,z 
_cell_length_a                    47.11185561 
_cell_length_b                    28.658703152744277 
_cell_length_c                    41.255068094107365 
_cell_angle_alpha                 88.834910541907 
_cell_angle_beta                  121.36332034184186 
_cell_angle_gamma                 91.17076862577142 
loop_ 
_atom_site_label 
_atom_site_type_symbol 
_atom_site_fract_x 
_atom_site_fract_y 
_atom_site_fract_z 
_atom_site_charge 
In1        In  0.25400381  0.00090825  0.39984313     1.36900
C2          C  0.19219528  0.49479853  0.33981095     0.78800
O3          O  0.24987805  0.07902681  0.39389422    -0.59600
O4          O  0.28248988  0.04595995  0.38068547    -0.50500
C5          C  0.27788592  0.00440373  0.47411306     0.71500
O6          O  0.24711558  0.50235300  0.44990989    -0.45400
C7          C  0.27647421  0.41851660  0.39654891     0.76200
O8          O  0.19747097  0.00258994  0.37255870    -0.57200
O9          O  0.28883234  0.45620601  0.39288084    -0.47300
O10         O  0.21806783  0.48842944  0.33877764    -0.53700
C11         C  0.26981573  0.08340647  0.38232512     0.86400
O12         O  0.29626945  0.00555414  0.46034588    -0.55600
O13         O  0.25330197  0.42276968  0.40304944    -0.58900
C14         C  0.28813130  0.29770301  0.35673864     0.87700
C15         C  0.31610265  0.29550935  0.34895913    -0.52500
C16         C  0.31230979  0.26008166  0.32566700     0.10700
C17         C  0.28086868  0.22824025  0.31333768     0.21600
C18         C  0.25676677  0.29951211  0.31727424    -0.53200
C19         C  0.25067550  0.26143090  0.29477685     0.10800
C20         C  0.28727903  0.25014561  0.37372231    -0.52800
C21         C  0.28389846  0.21367061  0.35120041     0.11300
H22         H  0.33594511  0.32143827  0.35866592     0.15900
H23         H  0.27835691  0.19826229  0.29540118     0.01600
H24         H  0.24380590  0.33196760  0.30700749     0.16200
H25         H  0.28880584  0.24572320  0.40080377     0.15900
C26         C  0.16096392  0.25099759  0.18522808     0.31300
C27         C  0.21789442  0.25469917  0.25577829     0.31300
C28         C  0.16238148  0.28984980  0.21047711    -0.04900
C29         C  0.16917449  0.20732578  0.21079130    -0.05700
C30         C  0.19315233  0.25925636  0.18499943    -0.05600
C31         C  0.19031082  0.29084696  0.24669879    -0.04900
C32         C  0.19801384  0.20880036  0.24686349    -0.05700
C33         C  0.22238551  0.25844050  0.22124369    -0.05600
C34         C  0.18288803  0.32222795  0.26620306    -0.31000
N35         N  0.15451577  0.34487491  0.24162958     0.15500
C36         C  0.14107315  0.32455994  0.20730038    -0.31000
H37         H  0.11793515  0.33429687  0.18206589     0.17500
C38         C  0.20034266  0.16590440  0.26393637    -0.30000
N39         N  0.17391348  0.13911049  0.23898988     0.14200
C40         C  0.15492036  0.16427544  0.20665904    -0.30000
C41         C  0.24588928  0.23923027  0.21524947    -0.30300
N42         N  0.23497705  0.23885333  0.17788567     0.14700
H43         H  0.26804494  0.22173960  0.23624737     0.17400
C44         C  0.20207733  0.24878557  0.15900433    -0.30300
H45         H  0.18572769  0.24779010  0.12847559     0.17400
H46         H  0.13200069  0.15276772  0.18195030     0.17400
H47         H  0.19593399  0.32712621  0.29645526     0.17400
H48         H  0.21941598  0.15528797  0.29219023     0.17400
C49         C  0.02992896  0.04154446  0.13234290     0.87700
C50         C  0.00185127  0.03357348  0.13977195    -0.52500
C51         C  0.00665421  0.49630448  0.16321848     0.10700
C52         C  0.03980323  0.46979271  0.17665017     0.21600
C53         C  0.06094725  0.04545085  0.17175174    -0.53200
C54         C  0.06838260  0.50693198  0.19462423     0.10800
C55         C  0.03293783  0.49564899  0.11613041    -0.52800
C56         C  0.03749308  0.45792100  0.13901536     0.11300
H57         H  0.98091983  0.05695416  0.12927420     0.15900
H58         H  0.04377068  0.43912430  0.19537661     0.01600
H59         H  0.07367722  0.07848127  0.18138182     0.16200
H60         H  0.03125620  0.49310681  0.08893987     0.15900
C61         C  0.10163994  0.50250368  0.23305628     0.31300
C62         C  0.15879407  0.49657566  0.30344716     0.31300
C63         C  0.12996814  0.03742464  0.24091840    -0.04900
C64         C  0.09831997  0.50938489  0.26774804    -0.05700
C65         C  0.12024646  0.45555788  0.24279049    -0.05600
C66         C  0.15815342  0.03555510  0.27714172    -0.04900
C67         C  0.12689956  0.50438871  0.30365387    -0.05700
C68         C  0.14930080  0.45331237  0.27867161    -0.05600
C69         C  0.17896378  0.07218043  0.28033768    -0.31000
N70         N  0.16478730  0.09471686  0.24632965     0.15500
C71         C  0.13620491  0.07204218  0.22172529    -0.31000
H72         H  0.12164204  0.08018903  0.19187530     0.17500
C73         C  0.11665191  0.50253398  0.32949350    -0.30000
N74         N  0.08313951  0.50813041  0.31000867     0.14200
C75         C  0.07262964  0.51629171  0.27312768    -0.30000
C76         C  0.16358785  0.41112702  0.28239539    -0.30300
N77         N  0.14459757  0.38701714  0.24986058     0.14700
H78         H  0.18703348  0.40005212  0.30649846     0.17400
C79         C  0.11812244  0.41376813  0.22526523    -0.30300
H80         H  0.09970621  0.40445109  0.19651695     0.17400
H81         H  0.04926646  0.53129077  0.25256913     0.17400
H82         H  0.20180818  0.08251162  0.30572460     0.17400
H83         H  0.13203297  0.49651142  0.35979345     0.17400
In84       In  0.06516763  0.24965152  0.08941285     1.36900
C85         C  0.12733577  0.24820557  0.14912522     0.78800
O86         O  0.06816219  0.32779900  0.09285656    -0.59600
O87         O  0.03785534  0.29209403  0.10973781    -0.50500
C88         C  0.04136172  0.25422164  0.01513712     0.71500
O89         O  0.07205392  0.25119338  0.03933766    -0.45400
C90         C  0.04210022  0.16580141  0.09342368     0.76200
O91         O  0.12167369  0.25460933  0.11588779    -0.57200
O92         O  0.02924144  0.20293820  0.09535796    -0.47300
O93         O  0.10169832  0.24075195  0.15081890    -0.53700
C94         C  0.04962494  0.33042678  0.10630841     0.86400
O95         O  0.02304187  0.25600879  0.02891468    -0.55600
O96         O  0.06640452  0.17129606  0.08881117    -0.58900
In97       In  0.31516795  0.99964357  0.08941221     1.36900
C98         C  0.37733448  0.49820044  0.14912516     0.78800
O99         O  0.31816233  0.07779053  0.09285714    -0.59600
O100        O  0.28785395  0.04208460  0.10973585    -0.50500
C101        C  0.29136357  0.00421925  0.01513748     0.71500
O102        O  0.32205496  0.50118715  0.03933833    -0.45400
C103        C  0.29210046  0.41579326  0.09341956     0.76200
O104        O  0.37167369  0.00460443  0.11588844    -0.57200
O105        O  0.27924233  0.45292889  0.09535708    -0.47300
O106        O  0.35169708  0.49074187  0.15081798    -0.53700
C107        C  0.29962391  0.08041764  0.10630747     0.86400
O108        O  0.27304335  0.00600699  0.02891456    -0.55600
O109        O  0.31640348  0.42128989  0.08880499    -0.58900
C110        C  0.03812722  0.04768946  0.35674327     0.87700
C111        C  0.06609855  0.04550163  0.34896332    -0.52500
C112        C  0.06230788  0.51007601  0.32566888     0.10700
C113        C  0.03086812  0.47823101  0.31333871     0.21600
C114        C  0.50676418  0.04950662  0.31727443    -0.53200
C115        C  0.50067312  0.51142757  0.29477689     0.10800
C116        C  0.03727803  0.50012956  0.37372449    -0.52800
C117        C  0.03389880  0.46365693  0.35120110     0.11300
H118        H  0.08594001  0.07143235  0.35867126     0.15900
H119        H  0.02835750  0.44825508  0.29540100     0.01600
H120        H  0.49380246  0.08196149  0.30700757     0.16200
H121        H  0.03880483  0.49570396  0.40080571     0.15900
C122        C  0.41096209  0.50099297  0.18522824     0.31300
C123        C  0.46789226  0.50469476  0.25577841     0.31300
C124        C  0.41237901  0.03984101  0.21047822    -0.04900
C125        C  0.41917421  0.45731948  0.21078999    -0.05700
C126        C  0.44315010  0.50925684  0.18499974    -0.05600
C127        C  0.44030825  0.04083817  0.24669994    -0.04900
C128        C  0.44801352  0.45879410  0.24686221    -0.06100
C129        C  0.47238324  0.50844087  0.22124396    -0.05600
C130        C  0.43288484  0.07221747  0.26620466    -0.31000
N131        N  0.40451229  0.09486388  0.24163132     0.15500
C132        C  0.39107014  0.07454982  0.20730186    -0.31000
H133        H  0.36793238  0.08428717  0.18206717     0.17500
C134        C  0.45034299  0.41589756  0.26393459    -0.30000
N135        N  0.42391406  0.38910341  0.23898778     0.14200
C136        C  0.40492045  0.41426880  0.20665738    -0.30000
C137        C  0.49588767  0.48923428  0.21524922    -0.30300
N138        N  0.48497553  0.48885972  0.17788544     0.14700
H139        H  0.01804434  0.47173990  0.23624903     0.17400
C140        C  0.45207555  0.49879003  0.15900434    -0.30300
H141        H  0.43572591  0.49779537  0.12847548     0.17400
H142        H  0.38200048  0.40276132  0.18194890     0.17400
H143        H  0.44593100  0.07711577  0.29645684     0.17400
H144        H  0.46941623  0.40528120  0.29218836     0.17400
C145        C  0.27993093  0.29153580  0.13233904     0.87700
C146        C  0.25185342  0.28356646  0.13976862    -0.52500
C147        C  0.25665508  0.24629956  0.16321587     0.10700
C148        C  0.28980352  0.21978631  0.17664768     0.21600
C149        C  0.31094945  0.29544213  0.17174769    -0.53200
C150        C  0.31838348  0.25692479  0.19462123     0.10800
C151        C  0.28293839  0.24564013  0.11612750    -0.52800
C152        C  0.28749295  0.20791294  0.13901288     0.11300
H153        H  0.23092240  0.30694784  0.12927087     0.15900
H154        H  0.29377045  0.18911853  0.19537454     0.01600
H155        H  0.32367937  0.32847244  0.18137755     0.16200
H156        H  0.28125655  0.24309677  0.08893684     0.15900
C157        C  0.35164051  0.25249679  0.23305361     0.31300
C158        C  0.40879427  0.24656934  0.30344479     0.31300
C159        C  0.37997013  0.28741524  0.24091469    -0.04900
C160        C  0.34832050  0.25938065  0.26774509    -0.05700
C161        C  0.37024611  0.20555020  0.24278916    -0.05600
C162        C  0.40815505  0.28554613  0.27713826    -0.04900
C163        C  0.37690000  0.25438477  0.30365101    -0.05700
C164        C  0.39930037  0.20330496  0.27867040    -0.05600
C165        C  0.42896483  0.32217248  0.28033490    -0.31000
N166        N  0.41478867  0.34470888  0.24632697     0.15500
C167        C  0.38620689  0.32203331  0.22172194    -0.31000
H168        H  0.37164439  0.33018033  0.19187208     0.17500
C169        C  0.36665278  0.25253323  0.32949088    -0.30000
N170        N  0.33314064  0.25813141  0.31000619     0.14200
C171        C  0.32263055  0.26629046  0.27312482    -0.30000
C172        C  0.41358597  0.16111805  0.28239576    -0.30300
N173        N  0.39459489  0.13700709  0.24986172     0.14700
H174        H  0.43703119  0.15004266  0.30649929     0.17400
C175        C  0.36812062  0.16375874  0.22526549    -0.30300
H176        H  0.34970395  0.15444079  0.19651755     0.17400
H177        H  0.29926775  0.28129027  0.25256616     0.17400
H178        H  0.45180839  0.33250481  0.30572252     0.17400
H179        H  0.38203393  0.24651213  0.35979100     0.17400
In180      In  0.50400328  0.25090420  0.39984117     1.36900
C181        C  0.44219505  0.24479304  0.33980891     0.78800
O182        O  0.49987439  0.32902230  0.39388767    -0.59600
O183        O  0.53249231  0.29595659  0.38068777    -0.50500
C184        C  0.02788451  0.25439850  0.47411403     0.71500
O185        O  0.49711417  0.25235477  0.44990821    -0.45400
C186        C  0.52647221  0.16851294  0.39654867     0.76200
O187        O  0.44747054  0.25258435  0.37255549    -0.57200
O188        O  0.03883028  0.20618992  0.39288620    -0.47300
O189        O  0.46806791  0.23842319  0.33877644    -0.53700
C190        C  0.51981522  0.33340254  0.38232304     0.86400
O191        O  0.04626781  0.25554749  0.46034653    -0.55600
O192        O  0.50330278  0.17276749  0.40305373    -0.58900
C193        C  0.04017578  0.08788555  0.37926677    -0.12000
C194        C  0.53632833  0.12403472  0.39078076    -0.13600
C195        C  0.03107894  0.41614467  0.36154277    -0.12000
C196        C  0.52695015  0.37780839  0.37114360    -0.13600
C197        C  0.28129036  0.37058566  0.09868420    -0.12000
C198        C  0.27684822  0.33334422  0.10959918    -0.13600
C199        C  0.29330207  0.12389238  0.11791421    -0.12000
C200        C  0.29001759  0.16143138  0.12815027    -0.13600
C201        C  0.02684615  0.08335350  0.10960350    -0.12000
C202        C  0.03128902  0.12059476  0.09868882    -0.13600
C203        C  0.04001900  0.41144013  0.12815241    -0.12000
C204        C  0.04330390  0.37390171  0.11791579    -0.13600
C205        C  0.28633140  0.37403931  0.39078076    -0.12000
C206        C  0.29018118  0.33790158  0.37926055    -0.13600
C207        C  0.28107827  0.16615977  0.36154446    -0.12000
C208        C  0.27695029  0.12781236  0.37114549    -0.13600
In209      In  0.25400436  0.00090871  0.89984381     1.36900
C210        C  0.19219540  0.49480014  0.83981218     0.78800
O211        O  0.24987962  0.07902760  0.89389704    -0.59600
O212        O  0.28248881  0.04596101  0.88068413    -0.50500
C213        C  0.27788603  0.00440264  0.97411364     0.71500
O214        O  0.24711494  0.50235518  0.94991090    -0.45400
C215        C  0.27647373  0.41851808  0.89655018     0.76200
O216        O  0.19747153  0.00259036  0.87255917    -0.57200
O217        O  0.28883300  0.45620747  0.89288398    -0.47300
O218        O  0.21806807  0.48843089  0.83877913    -0.53700
C219        C  0.26981579  0.08340756  0.88232583     0.86400
O220        O  0.29626971  0.00555394  0.96034665    -0.55600
O221        O  0.25330060  0.42277124  0.90304921    -0.58900
C222        C  0.28813126  0.29770468  0.85673966     0.87700
C223        C  0.31610282  0.29551107  0.84896048    -0.52500
C224        C  0.31231008  0.26008342  0.82566832     0.10700
C225        C  0.28086897  0.22824199  0.81333878     0.21600
C226        C  0.25676688  0.29951375  0.81727514    -0.53200
C227        C  0.25067579  0.26143260  0.79477779     0.10800
C228        C  0.28727885  0.25014720  0.87372321    -0.52800
C229        C  0.28389846  0.21367220  0.85120135     0.11300
H230        H  0.33594523  0.32144000  0.85866737     0.15900
H231        H  0.27835729  0.19826421  0.79540215     0.01600
H232        H  0.24380606  0.33196933  0.80700811     0.16200
H233        H  0.28880537  0.24572472  0.90080447     0.15900
C234        C  0.16096432  0.25099903  0.68522920     0.31300
C235        C  0.21789480  0.25470077  0.75577924     0.31300
C236        C  0.16238139  0.28985035  0.71047867    -0.04900
C237        C  0.16917551  0.20732664  0.71079198    -0.05700
C238        C  0.19315251  0.25925950  0.68500038    -0.05600
C239        C  0.19031079  0.29084762  0.74670024    -0.04900
C240        C  0.19801483  0.20880135  0.74686412    -0.05700
C241        C  0.22238579  0.25844349  0.72124461    -0.05600
C242        C  0.18288816  0.32222864  0.76620468    -0.31000
N243        N  0.15451575  0.34487539  0.74163134     0.15500
C244        C  0.14107305  0.32456035  0.70730215    -0.31000
H245        H  0.11793510  0.33429744  0.68206762     0.17500
C246        C  0.20034409  0.16590511  0.76393690    -0.30000
N247        N  0.17391508  0.13911094  0.73899031     0.14200
C248        C  0.15492177  0.16427594  0.70665958    -0.30000
C249        C  0.24588945  0.23923339  0.71525011    -0.30300
N250        N  0.23497710  0.23885660  0.67788628     0.14700
H251        H  0.26804496  0.22174220  0.73624786     0.17400
C252        C  0.20207746  0.24878903  0.65900518    -0.30300
H253        H  0.18572765  0.24779341  0.62847636     0.17400
H254        H  0.13200210  0.15276814  0.68195095     0.17400
H255        H  0.19593447  0.32712734  0.79645682     0.17400
H256        H  0.21941734  0.15528885  0.79219069     0.17400
C257        C  0.02993050  0.04154350  0.63234246     0.87700
C258        C  0.00185287  0.03357337  0.63977177    -0.52500
C259        C  0.00665462  0.49630620  0.66321879     0.10700
C260        C  0.03980355  0.46979370  0.67665127     0.21600
C261        C  0.06094888  0.04545033  0.67175119    -0.53200
C262        C  0.06838312  0.50693275  0.69462499     0.10800
C263        C  0.03293893  0.49564779  0.61613145    -0.52800
C264        C  0.03749371  0.45792050  0.63901685     0.11300
H265        H  0.98092154  0.05695416  0.62927382     0.15900
H266        H  0.04377070  0.43912585  0.69537818     0.01600
H267        H  0.07367877  0.07848071  0.68138078     0.16200
H268        H  0.03125758  0.49310460  0.58894106     0.15900
C269        C  0.10164035  0.50250481  0.73305718     0.31300
C270        C  0.15879430  0.49657708  0.80344825     0.31300
C271        C  0.12996951  0.03742513  0.74091868    -0.04900
C272        C  0.09832019  0.50938635  0.76774876    -0.05700
C273        C  0.12024685  0.45555897  0.74279170    -0.05600
C274        C  0.15815461  0.03555577  0.77714216    -0.04900
C275        C  0.12689971  0.50439036  0.80365468    -0.05700
C276        C  0.14930112  0.45331358  0.77867288    -0.05600
C277        C  0.17896498  0.07218114  0.78033822    -0.31000
N278        N  0.16478884  0.09471736  0.74633017     0.15500
C279        C  0.13620651  0.07204256  0.72172561    -0.31000
H280        H  0.12164395  0.08018915  0.69187562     0.17500
C281        C  0.11665203  0.50253702  0.82949426    -0.30000
N282        N  0.08313970  0.50813411  0.81000938     0.14200
C283        C  0.07262990  0.51629435  0.77312826    -0.30000
C284        C  0.16358800  0.41112797  0.78239693    -0.30300
N285        N  0.14459772  0.38701786  0.74986226     0.14700
H286        H  0.18703356  0.40005295  0.80650024     0.17400
C287        C  0.11812270  0.41376894  0.72526672    -0.30300
H288        H  0.09970650  0.40445181  0.69651851     0.17400
H289        H  0.04926692  0.53129376  0.75256956     0.17400
H290        H  0.20180934  0.08251248  0.80572536     0.17400
H291        H  0.13203306  0.49651498  0.85979434     0.17400
In292      In  0.06516834  0.24965139  0.58941390     1.36900
C293        C  0.12733628  0.24820673  0.64912630     0.78800
O294        O  0.06816134  0.32779900  0.59285691    -0.59600
O295        O  0.03785684  0.29209254  0.60974078    -0.50500
C296        C  0.04136266  0.25422034  0.51513812     0.71500
O297        O  0.07205483  0.25119206  0.53933874    -0.45400
C298        C  0.04210148  0.16580067  0.59342375     0.76200
O299        O  0.12167423  0.25461213  0.61588901    -0.57200
O300        O  0.02924080  0.20293694  0.59535553    -0.47300
O301        O  0.10169895  0.24075098  0.65081981    -0.53700
C302        C  0.04962523  0.33042585  0.60631033     0.86400
O303        O  0.02304282  0.25600852  0.52891564    -0.55600
O304        O  0.06640744  0.17129617  0.58881436    -0.58900
In305      In  0.31516813  0.99964605  0.58941174     1.36900
C306        C  0.37733489  0.49820011  0.64912495     0.78800
O307        O  0.31816273  0.07779303  0.59285773    -0.59600
O308        O  0.28785362  0.04208642  0.60973508    -0.50500
C309        C  0.29136369  0.00422109  0.51513694     0.71500
O310        O  0.32205581  0.50118766  0.53933729    -0.45400
C311        C  0.29210156  0.41579448  0.59341956     0.76200
O312        O  0.37167380  0.00460905  0.61588838    -0.57200
O313        O  0.27924374  0.45293027  0.59535741    -0.47300
O314        O  0.35169719  0.49074203  0.65081723    -0.53700
C315        C  0.29962388  0.08041963  0.60630754     0.86400
O316        O  0.27304365  0.00601053  0.52891414    -0.55600
O317        O  0.31640417  0.42129085  0.58880420    -0.58900
C318        C  0.03812787  0.04769437  0.85674252     0.87700
C319        C  0.06609927  0.04550579  0.84896271    -0.52500
C320        C  0.06230802  0.51008036  0.82566950     0.10700
C321        C  0.03086778  0.47823621  0.81333887     0.21600
C322        C  0.50676334  0.04950631  0.81727534    -0.53200
C323        C  0.50067327  0.51142573  0.79477720     0.10800
C324        C  0.03727718  0.50013510  0.87372431    -0.52800
C325        C  0.03389780  0.46366234  0.85120098     0.11300
H326        H  0.08594086  0.07143632  0.85867061     0.15900
H327        H  0.02835701  0.44826010  0.79540123     0.01600
H328        H  0.49380135  0.08196112  0.80700906     0.16200
H329        H  0.03880366  0.49570966  0.90080532     0.15900
C330        C  0.41096230  0.50099224  0.68522831     0.31300
C331        C  0.46789245  0.50469369  0.75577852     0.31300
C332        C  0.41237833  0.03984138  0.71047885    -0.04900
C333        C  0.41917426  0.45731868  0.71079002    -0.05700
C334        C  0.44315032  0.50925598  0.68499992    -0.05600
C335        C  0.44030747  0.04083819  0.74670062    -0.04900
C336        C  0.44801358  0.45879324  0.74686221    -0.06100
C337        C  0.47238348  0.50843970  0.72124410    -0.05600
C338        C  0.43288383  0.07221688  0.76620559    -0.31000
N339        N  0.40451120  0.09486333  0.74163235     0.15500
C340        C  0.39106929  0.07454981  0.70730273    -0.31000
H341        H  0.36793174  0.08428762  0.68206795     0.17500
C342        C  0.45034326  0.41589671  0.76393457    -0.30000
N343        N  0.42391439  0.38910247  0.73898788     0.14200
C344        C  0.40492064  0.41426786  0.70665745    -0.30000
C345        C  0.49588776  0.48923312  0.71524905    -0.30300
N346        N  0.48497553  0.48885933  0.67788521     0.14700
H347        H  0.01804392  0.47174371  0.73624934     0.17400
C348        C  0.45207559  0.49878976  0.65900430    -0.30300
H349        H  0.43572593  0.49779571  0.62847543     0.17400
H350        H  0.38200072  0.40276022  0.68194896     0.17400
H351        H  0.44592993  0.07711487  0.79645782     0.17400
H352        H  0.46941666  0.40528033  0.79218829     0.17400
C353        C  0.27993152  0.29153748  0.63233977     0.87700
C354        C  0.25185377  0.28356861  0.63976902    -0.52500
C355        C  0.25665502  0.24630179  0.66321621     0.10700
C356        C  0.28980325  0.21978792  0.67664813     0.21600
C357        C  0.31094990  0.29544336  0.67174863    -0.53200
C358        C  0.31838348  0.25692590  0.69462203     0.10800
C359        C  0.28293875  0.24564166  0.61612822    -0.52800
C360        C  0.28749286  0.20791447  0.63901345     0.11300
H361        H  0.23092293  0.30695037  0.62927123     0.15900
H362        H  0.29376983  0.18912007  0.69537484     0.01600
H363        H  0.32368004  0.32847354  0.68137879     0.16200
H364        H  0.28125713  0.24309823  0.58893772     0.15900
C365        C  0.35164040  0.25249729  0.73305451     0.31300
C366        C  0.40879411  0.24656939  0.80344565     0.31300
C367        C  0.37997048  0.28741478  0.74091534    -0.04900
C368        C  0.34832053  0.25938223  0.76774604    -0.05700
C369        C  0.37024541  0.20555011  0.74279026    -0.05600
C370        C  0.40815541  0.28554561  0.77713890    -0.04900
C371        C  0.37690001  0.25438600  0.80365190    -0.05700
C372        C  0.39929965  0.20330464  0.77867149    -0.05600
C373        C  0.42896536  0.32217171  0.78033532    -0.31000
N374        N  0.41478921  0.34470786  0.74632719     0.15500
C375        C  0.38620742  0.32203231  0.72172240    -0.31000
H376        H  0.37164477  0.33017925  0.69187239     0.17500
C377        C  0.36665290  0.25253462  0.82949188    -0.30000
N378        N  0.33314085  0.25813340  0.81000737     0.14200
C379        C  0.32263072  0.26629255  0.77312598    -0.30000
C380        C  0.41358498  0.16111750  0.78239684    -0.30300
N381        N  0.39459386  0.13700657  0.74986286     0.14700
H382        H  0.43703029  0.15004197  0.80650037     0.17400
C383        C  0.36811967  0.16375850  0.72526653    -0.30300
H384        H  0.34970319  0.15444088  0.69651867     0.17400
H385        H  0.29926799  0.28129268  0.75256746     0.17400
H386        H  0.45180881  0.33250422  0.80572285     0.17400
H387        H  0.38203407  0.24651304  0.85979196     0.17400
In388      In  0.50400247  0.25090242  0.89984302     1.36900
C389        C  0.44219466  0.24479265  0.83981000     0.78800
O390        O  0.49987507  0.32902065  0.89389048    -0.59600
O391        O  0.53249133  0.29595367  0.88068865    -0.50500
C392        C  0.02788368  0.25440108  0.97411303     0.71500
O393        O  0.49711282  0.25235276  0.94990982    -0.45400
C394        C  0.52647068  0.16851069  0.89655044     0.76200
O395        O  0.44746978  0.25258417  0.87255641    -0.57200
O396        O  0.03883009  0.20619521  0.89288518    -0.47300
O397        O  0.46806767  0.23842188  0.83877804    -0.53700
C398        C  0.51981508  0.33340009  0.88232463     0.86400
O399        O  0.04626715  0.25555142  0.96034575    -0.55600
O400        O  0.50329975  0.17276562  0.90305294    -0.58900
C401        C  0.04017643  0.08789087  0.87926574    -0.12000
C402        C  0.53632676  0.12403244  0.89078252    -0.13600
C403        C  0.03107777  0.41615015  0.86154276    -0.12000
C404        C  0.52694985  0.37780561  0.87114448    -0.13600
C405        C  0.28129153  0.37058702  0.59868464    -0.12000
C406        C  0.27684926  0.33334587  0.60959995    -0.13600
C407        C  0.29330188  0.12389399  0.61791459    -0.12000
C408        C  0.29001742  0.16143287  0.62815084    -0.13600
C409        C  0.02684767  0.08335218  0.60960273    -0.12000
C410        C  0.03129044  0.12059367  0.59868831    -0.13600
C411        C  0.04001931  0.41143908  0.62815454    -0.12000
C412        C  0.04330410  0.37390045  0.61791810    -0.13600
C413        C  0.28633085  0.37404084  0.89078169    -0.12000
C414        C  0.29018087  0.33790329  0.87926145    -0.13600
C415        C  0.28107806  0.16616130  0.86154527    -0.12000
C416        C  0.27695000  0.12781380  0.87114619    -0.13600
In417      In  0.25400429  0.50090668  0.39984262     1.36900
C418        C  0.19219462  0.99479995  0.33981157     0.78800
O419        O  0.24987730  0.57902504  0.39389335    -0.59600
O420        O  0.28249041  0.54595987  0.38068575    -0.50500
C421        C  0.27788639  0.50440230  0.47411258     0.71500
O422        O  0.24711506  0.00235541  0.44991038    -0.45400
C423        C  0.27647319  0.91851749  0.39654976     0.76200
O424        O  0.19747143  0.50258749  0.37255815    -0.57200
O425        O  0.28883147  0.95620660  0.39288143    -0.47300
O426        O  0.21806709  0.98843014  0.33877823    -0.53700
C427        C  0.26981538  0.58340581  0.38232490     0.86400
O428        O  0.29626994  0.50555315  0.46034541    -0.55600
O429        O  0.25330105  0.92277118  0.40305035    -0.58900
C430        C  0.28812994  0.79770357  0.35673972     0.87700
C431        C  0.31610140  0.79551005  0.34896037    -0.52500
C432        C  0.31230853  0.76008257  0.32566807     0.10700
C433        C  0.28086740  0.72824122  0.31333849     0.21600
C434        C  0.25676545  0.79951289  0.31727528    -0.53200
C435        C  0.25067425  0.76143190  0.29477773     0.10800
C436        C  0.28727757  0.75014602  0.37372314    -0.52800
C437        C  0.28389708  0.71367121  0.35120108     0.11300
H438        H  0.33594396  0.82143888  0.35866745     0.15900
H439        H  0.27835572  0.69826343  0.29540185     0.01600
H440        H  0.24380453  0.83196837  0.30700863     0.16200
H441        H  0.28880435  0.74572337  0.40080455     0.15900
C442        C  0.16096276  0.75099868  0.18522897     0.31300
C443        C  0.21789321  0.75470031  0.25577914     0.31300
C444        C  0.16237997  0.78985023  0.21047836    -0.04900
C445        C  0.16917373  0.70732644  0.21079185    -0.05700
C446        C  0.19315106  0.75925864  0.18500026    -0.05600
C447        C  0.19030934  0.79084743  0.24670001    -0.04900
C448        C  0.19801305  0.70880107  0.24686401    -0.05700
C449        C  0.22238428  0.75844264  0.22124456    -0.05600
C450        C  0.18288661  0.82222845  0.26620435    -0.31000
N451        N  0.15451427  0.84487531  0.24163092     0.15500
C452        C  0.14107165  0.82456029  0.20730175    -0.31000
H453        H  0.11793367  0.83429740  0.18206717     0.17500
C454        C  0.20034249  0.66590462  0.26393656    -0.30000
N455        N  0.17391363  0.63911039  0.23898982     0.14200
C456        C  0.15492016  0.66427557  0.20665921    -0.30000
C457        C  0.24588796  0.73923230  0.21525024    -0.30300
N458        N  0.23497574  0.73885532  0.17788648     0.14700
H459        H  0.26804345  0.72174110  0.23624807     0.17400
C460        C  0.20207609  0.74878774  0.15900520    -0.30300
H461        H  0.18572639  0.74779205  0.12847637     0.17400
H462        H  0.13200068  0.65276769  0.18195042     0.17400
H463        H  0.19593272  0.82712695  0.29645651     0.17400
H464        H  0.21941591  0.65528817  0.29219023     0.17400
C465        C  0.02992950  0.54154376  0.13234252     0.87700
C466        C  0.00185198  0.53357223  0.13977180    -0.52500
C467        C  0.00665330  0.99630607  0.16321883     0.10700
C468        C  0.03980224  0.96979393  0.17665084     0.21600
C469        C  0.06094793  0.54545006  0.17175132    -0.53200
C470        C  0.06838174  0.00693308  0.19462487     0.10800
C471        C  0.03293732  0.99564944  0.11613116    -0.52800
C472        C  0.03749225  0.95792167  0.13901618     0.11300
H473        H  0.98092046  0.55695266  0.12927426     0.15900
H474        H  0.04376947  0.93912571  0.19537743     0.01600
H475        H  0.07367775  0.57848040  0.18138150     0.16200
H476        H  0.03125591  0.99310698  0.08894073     0.15900
C477        C  0.10163909  0.00250490  0.23305695     0.31300
C478        C  0.15879333  0.99657699  0.30344782     0.31300
C479        C  0.12996886  0.53742368  0.24091789    -0.04900
C480        C  0.09831922  0.00938670  0.26774869    -0.05700
C481        C  0.12024545  0.95555892  0.24279139    -0.05600
C482        C  0.15815410  0.53555414  0.27714124    -0.04900
C483        C  0.12689886  0.00439056  0.30365449    -0.05700
C484        C  0.14929985  0.95331350  0.27867246    -0.05600
C485        C  0.17896430  0.57217972  0.28033730    -0.31000
N486        N  0.16478784  0.59471628  0.24632934     0.15500
C487        C  0.13620556  0.57204145  0.22172487    -0.31000
H488        H  0.12164265  0.58018840  0.19187489     0.17500
C489        C  0.11665118  0.00253523  0.32949407    -0.30000
N490        N  0.08313879  0.00813165  0.31000934     0.14200
C491        C  0.07262882  0.01629315  0.27312831    -0.30000
C492        C  0.16358672  0.91112791  0.28239646    -0.30300
N493        N  0.14459627  0.88701782  0.24986180     0.14700
H494        H  0.18703226  0.90005293  0.30649956     0.17400
C495        C  0.11812118  0.91376884  0.22526642    -0.30300
H496        H  0.09970479  0.90445160  0.19651823     0.17400
H497        H  0.04926571  0.03129219  0.25256991     0.17400
H498        H  0.20180862  0.58251106  0.30572439     0.17400
H499        H  0.13203223  0.99651213  0.35979392     0.17400
In500      In  0.06516672  0.74965231  0.08941340     1.36900
C501        C  0.12733470  0.74820662  0.14912600     0.78800
O502        O  0.06816133  0.82779982  0.09285767    -0.59600
O503        O  0.03785404  0.79209450  0.10973811    -0.50500
C504        C  0.04136136  0.75422198  0.01513775     0.71500
O505        O  0.07205347  0.75119337  0.03933854    -0.45400
C506        C  0.04209977  0.66580189  0.09342404     0.76200
O507        O  0.12167274  0.75461168  0.11588874    -0.57200
O508        O  0.02924035  0.70293842  0.09535767    -0.47300
O509        O  0.10169723  0.74075165  0.15081939    -0.53700
C510        C  0.04962383  0.83042736  0.10630920     0.86400
O511        O  0.02304132  0.75600981  0.02891502    -0.55600
O512        O  0.06640444  0.67129698  0.08881228    -0.58900
In513      In  0.31516717  0.49964500  0.08941220     1.36900
C514        C  0.37733507  0.99819826  0.14912532     0.78800
O515        O  0.31816015  0.57779195  0.09285687    -0.59600
O516        O  0.28785328  0.54208440  0.10973696    -0.50500
C517        C  0.29136313  0.50422023  0.01513755     0.71500
O518        O  0.32205547  0.00118678  0.03933812    -0.45400
C519        C  0.29210097  0.91579229  0.09342008     0.76200
O520        O  0.37167282  0.50460855  0.11588835    -0.57200
O521        O  0.27924378  0.95292825  0.09535876    -0.47300
O522        O  0.35169748  0.99074159  0.15081808    -0.53700
C523        C  0.29962234  0.58041799  0.10630808     0.86400
O524        O  0.27304281  0.50600908  0.02891442    -0.55600
O525        O  0.31640329  0.92128833  0.08880415    -0.58900
C526        C  0.03812793  0.54768920  0.35674235     0.87700
C527        C  0.06609914  0.54550122  0.34896223    -0.52500
C528        C  0.06230727  0.01007672  0.32566971     0.10700
C529        C  0.03086744  0.97823179  0.31333922     0.21600
C530        C  0.50676305  0.54950808  0.31727455    -0.53200
C531        C  0.50067391  0.01142559  0.29477718     0.10800
C532        C  0.03727719  0.00012964  0.37372508    -0.52800
C533        C  0.03389800  0.96365728  0.35120150     0.11300
H534        H  0.08594060  0.57143191  0.35867003     0.15900
H535        H  0.02835680  0.94825603  0.29540136     0.01600
H536        H  0.49380089  0.58196276  0.30700804     0.16200
H537        H  0.03880401  0.99570377  0.40080630     0.15900
C538        C  0.41096266  0.00099081  0.18522848     0.31300
C539        C  0.46789296  0.00469277  0.25577868     0.31300
C540        C  0.41237792  0.53984208  0.21047853    -0.04900
C541        C  0.41917424  0.95731807  0.21079086    -0.05700
C542        C  0.44315076  0.00925300  0.18499996    -0.05600
C543        C  0.44030712  0.54083913  0.24670023    -0.04900
C544        C  0.44801361  0.95879271  0.24686304    -0.06100
C545        C  0.47238390  0.00843724  0.22124415    -0.05600
C546        C  0.43288338  0.57221738  0.26620531    -0.31000
N547        N  0.40451065  0.59486353  0.24163229     0.15500
C548        C  0.39106866  0.57455011  0.20730258    -0.31000
H549        H  0.36793096  0.58428762  0.18206797     0.17500
C550        C  0.45034279  0.91589646  0.26393571    -0.30000
N551        N  0.42391361  0.88910255  0.23898910     0.14200
C552        C  0.40492016  0.91426772  0.20665856    -0.30000
C553        C  0.49588823  0.98923012  0.21524950    -0.30300
N554        N  0.48497604  0.98885512  0.17788570     0.14700
H555        H  0.01804326  0.97174158  0.23624931     0.17400
C556        C  0.45207606  0.99878553  0.15900459    -0.30300
H557        H  0.43572643  0.99779104  0.12847573     0.17400
H558        H  0.38200021  0.90276027  0.18195009     0.17400
H559        H  0.44592962  0.57711527  0.29645766     0.17400
H560        H  0.46941608  0.90528009  0.29218943     0.17400
C561        C  0.27993024  0.79153581  0.13233996     0.87700
C562        C  0.25185250  0.78356719  0.13976926    -0.52500
C563        C  0.25665384  0.74630060  0.16321667     0.10700
C564        C  0.28980218  0.71978679  0.17664886     0.21600
C565        C  0.31094864  0.79544209  0.17174874    -0.53200
C566        C  0.31838237  0.75692494  0.19462243     0.10800
C567        C  0.28293753  0.74563978  0.11612873    -0.52800
C568        C  0.28749171  0.70791285  0.13901421     0.11300
H569        H  0.23092159  0.80694877  0.12927127     0.15900
H570        H  0.29376880  0.68911925  0.19537578     0.01600
H571        H  0.32367868  0.82847239  0.18137855     0.16200
H572        H  0.28125579  0.74309602  0.08893819     0.15900
C573        C  0.35163935  0.75249671  0.23305489     0.31300
C574        C  0.40879304  0.74656898  0.30344617     0.31300
C575        C  0.37996916  0.78741493  0.24091609    -0.04900
C576        C  0.34831932  0.75938075  0.26774631    -0.05700
C577        C  0.37024471  0.70554991  0.24279051    -0.05600
C578        C  0.40815404  0.78554572  0.27713969    -0.04900
C579        C  0.37689877  0.75438478  0.30365227    -0.05700
C580        C  0.39929895  0.70330450  0.27867177    -0.05600
C581        C  0.42896400  0.82217195  0.28033640    -0.31000
N582        N  0.41478794  0.84470826  0.24632842     0.15500
C583        C  0.38620611  0.82203285  0.22172337    -0.31000
H584        H  0.37164377  0.83017968  0.19187349     0.17500
C585        C  0.36665154  0.75253377  0.32949212    -0.30000
N586        N  0.33313944  0.75813229  0.31000737     0.14200
C587        C  0.32262940  0.76629108  0.27312599    -0.30000
C588        C  0.41358444  0.66111749  0.28239701    -0.30300
N589        N  0.39459330  0.63700669  0.24986288     0.14700
H590        H  0.43702965  0.65004200  0.30650047     0.17400
C591        C  0.36811910  0.66375849  0.22526670    -0.30300
H592        H  0.34970252  0.65444080  0.19651872     0.17400
H593        H  0.29926673  0.78129120  0.25256732     0.17400
H594        H  0.45180752  0.83250420  0.30572394     0.17400
H595        H  0.38203267  0.74651273  0.35979226     0.17400
In596      In  0.50400188  0.75090377  0.39984300     1.36900
C597        C  0.44219371  0.74479264  0.33981045     0.78800
O598        O  0.49987370  0.82902193  0.39388985    -0.59600
O599        O  0.53249108  0.79595555  0.38068944    -0.50500
C600        C  0.02788487  0.75439770  0.47411381     0.71500
O601        O  0.49711284  0.75235437  0.44991021    -0.45400
C602        C  0.52647111  0.66851279  0.39655035     0.76200
O603        O  0.44746903  0.75258402  0.37255695    -0.57200
O604        O  0.03883123  0.70618967  0.39288596    -0.47300
O605        O  0.46806667  0.73842276  0.33877822    -0.53700
C606        C  0.51981432  0.83340172  0.38232488     0.86400
O607        O  0.04626836  0.75554652  0.46034655    -0.55600
O608        O  0.50330181  0.67276691  0.40305569    -0.58900
C609        C  0.04017660  0.58788551  0.37926574    -0.12000
C610        C  0.53632724  0.62403490  0.39078190    -0.13600
C611        C  0.03107847  0.91614482  0.36154304    -0.12000
C612        C  0.52694937  0.87780736  0.37114527    -0.13600
C613        C  0.28129056  0.87058494  0.09868481    -0.12000
C614        C  0.27684796  0.83334386  0.10959989    -0.13600
C615        C  0.29330032  0.62389218  0.11791533    -0.12000
C616        C  0.29001597  0.66143106  0.12815169    -0.13600
C617        C  0.02684635  0.58335320  0.10960334    -0.12000
C618        C  0.03128885  0.62059497  0.09868904    -0.13600
C619        C  0.04001792  0.91144062  0.12815334    -0.12000
C620        C  0.04330269  0.87390214  0.11791670    -0.13600
C621        C  0.28633015  0.87403987  0.39078184    -0.12000
C622        C  0.29017980  0.83790200  0.37926171    -0.13600
C623        C  0.28107712  0.66616016  0.36154493    -0.12000
C624        C  0.27694949  0.62781228  0.37114556    -0.13600
In625      In  0.25400416  0.50090849  0.89984407     1.36900
C626        C  0.19219545  0.99480066  0.83981210     0.78800
O627        O  0.24987862  0.57902746  0.89389649    -0.59600
O628        O  0.28248923  0.54596144  0.88068557    -0.50500
C629        C  0.27788575  0.50440297  0.97411380     0.71500
O630        O  0.24711522  0.00235414  0.94991082    -0.45400
C631        C  0.27647416  0.91851830  0.89655034     0.76200
O632        O  0.19747133  0.50258958  0.87255922    -0.57200
O633        O  0.28883351  0.95620769  0.89288427    -0.47300
O634        O  0.21806802  0.98843097  0.83877896    -0.53700
C635        C  0.26981547  0.58340780  0.88232627     0.86400
O636        O  0.29626956  0.50555291  0.96034698    -0.55600
O637        O  0.25330082  0.92277150  0.90304899    -0.58900
C638        C  0.28813140  0.79770486  0.85673964     0.87700
C639        C  0.31610281  0.79551113  0.84896023    -0.52500
C640        C  0.31230997  0.76008342  0.82566809     0.10700
C641        C  0.28086888  0.72824195  0.81333883     0.21600
C642        C  0.25676690  0.79951381  0.81727523    -0.53200
C643        C  0.25067569  0.76143257  0.79477794     0.10800
C644        C  0.28727912  0.75014749  0.87372335    -0.52800
C645        C  0.28389857  0.71367234  0.85120157     0.11300
H646        H  0.33594526  0.82144007  0.85866703     0.15900
H647        H  0.27835711  0.69826399  0.79540228     0.01600
H648        H  0.24380593  0.83196935  0.80700827     0.16200
H649        H  0.28880572  0.74572522  0.90080474     0.15900
C650        C  0.16096409  0.75099908  0.68522942     0.31300
C651        C  0.21789461  0.75470074  0.75577947     0.31300
C652        C  0.16238124  0.78985056  0.71047884    -0.04900
C653        C  0.16917518  0.70732679  0.71079230    -0.05700
C654        C  0.19315234  0.75925917  0.68500064    -0.05600
C655        C  0.19031065  0.79084774  0.74670044    -0.04900
C656        C  0.19801455  0.70880142  0.74686442    -0.05700
C657        C  0.22238559  0.75844323  0.72124485    -0.05600
C658        C  0.18288803  0.82222874  0.76620495    -0.31000
N659        N  0.15451561  0.84487555  0.74163157     0.15500
C660        C  0.14107291  0.82456056  0.70730238    -0.31000
H661        H  0.11793496  0.83429772  0.68206788     0.17500
C662        C  0.20034366  0.66590524  0.76393724    -0.30000
N663        N  0.17391455  0.63911120  0.73899072     0.14200
C664        C  0.15492129  0.66427622  0.70665998    -0.30000
C665        C  0.24588935  0.73923330  0.71525041    -0.30300
N666        N  0.23497697  0.73885655  0.67788655     0.14700
H667        H  0.26804483  0.72174217  0.73624809     0.17400
C668        C  0.20207731  0.74878879  0.65900545    -0.30300
H669        H  0.18572752  0.74779338  0.62847661     0.17400
H670        H  0.13200158  0.65276851  0.68195133     0.17400
H671        H  0.19593431  0.82712736  0.79645701     0.17400
H672        H  0.21941694  0.65528891  0.79219104     0.17400
C673        C  0.02993060  0.54154331  0.63234261     0.87700
C674        C  0.00185279  0.53357308  0.63977151    -0.52500
C675        C  0.00665482  0.99630645  0.66321905     0.10700
C676        C  0.03980367  0.96979393  0.67665127     0.21600
C677        C  0.06094877  0.54545019  0.67175152    -0.53200
C678        C  0.06838324  0.00693304  0.69462481     0.10800
C679        C  0.03293861  0.99564793  0.61613119    -0.52800
C680        C  0.03749351  0.95792063  0.63901665     0.11300
H681        H  0.98092140  0.55695390  0.62927335     0.15900
H682        H  0.04377092  0.93912622  0.69537828     0.01600
H683        H  0.07367858  0.57848061  0.68138131     0.16200
H684        H  0.03125708  0.99310477  0.58894071     0.15900
C685        C  0.10164044  0.00250530  0.73305707     0.31300
C686        C  0.15879433  0.99657764  0.80344819     0.31300
C687        C  0.12996933  0.53742481  0.74091884    -0.04900
C688        C  0.09832023  0.00938713  0.76774862    -0.05700
C689        C  0.12024686  0.95555940  0.74279171    -0.05600
C690        C  0.15815444  0.53555541  0.77714230    -0.04900
C691        C  0.12689971  0.00439115  0.80365456    -0.05700
C692        C  0.14930111  0.95331404  0.77867290    -0.05600
C693        C  0.17896469  0.57218099  0.78033846    -0.31000
N694        N  0.16478843  0.59471743  0.74633048     0.15500
C695        C  0.13620621  0.57204250  0.72172587    -0.31000
H696        H  0.12164364  0.58018918  0.69187587     0.17500
C697        C  0.11665192  0.00253764  0.82949407    -0.30000
N698        N  0.08313957  0.00813456  0.81000915     0.14200
C699        C  0.07262984  0.01629498  0.77312804    -0.30000
C700        C  0.16358792  0.91112829  0.78239706    -0.30300
N701        N  0.14459763  0.88701816  0.74986242     0.14700
H702        H  0.18703338  0.90005317  0.80650038     0.17400
C703        C  0.11812266  0.91376927  0.72526682    -0.30300
H704        H  0.09970643  0.90445207  0.69651862     0.17400
H705        H  0.04926688  0.03129427  0.75256933     0.17400
H706        H  0.20180901  0.58251228  0.80572562     0.17400
H707        H  0.13203289  0.99651554  0.85979412     0.17400
In708      In  0.06516818  0.74965135  0.58941370     1.36900
C709        C  0.12733607  0.74820676  0.64912644     0.78800
O710        O  0.06816122  0.82779899  0.59285663    -0.59600
O711        O  0.03785644  0.79209262  0.60974016    -0.50500
C712        C  0.04136284  0.75421989  0.51513790     0.71500
O713        O  0.07205499  0.75119175  0.53933869    -0.45400
C714        C  0.04210167  0.66580062  0.59342411     0.76200
O715        O  0.12167416  0.75461116  0.61588913    -0.57200
O716        O  0.02924076  0.70293688  0.59535548    -0.47300
O717        O  0.10169859  0.74075199  0.65081985    -0.53700
C718        C  0.04962493  0.83042591  0.60630984     0.86400
O719        O  0.02304287  0.75600818  0.52891525    -0.55600
O720        O  0.06640771  0.67129614  0.58881488    -0.58900
In721      In  0.31516801  0.49964603  0.58941136     1.36900
C722        C  0.37733515  0.99820041  0.64912504     0.78800
O723        O  0.31816276  0.57779312  0.59285750    -0.59600
O724        O  0.28785324  0.54208649  0.60973423    -0.50500
C725        C  0.29136396  0.50422024  0.51513644     0.71500
O726        O  0.32205556  0.00118759  0.53933751    -0.45400
C727        C  0.29210139  0.91579446  0.59341963     0.76200
O728        O  0.37167375  0.50460834  0.61588835    -0.57200
O729        O  0.27924390  0.95293031  0.59535796    -0.47300
O730        O  0.35169758  0.99074171  0.65081747    -0.53700
C731        C  0.29962369  0.58041971  0.60630704     0.86400
O732        O  0.27304369  0.50600921  0.52891337    -0.55600
O733        O  0.31640381  0.92129078  0.58880391    -0.58900
C734        C  0.03812794  0.54769462  0.85674246     0.87700
C735        C  0.06609949  0.54550573  0.84896288    -0.52500
C736        C  0.06230788  0.01008053  0.82566931     0.10700
C737        C  0.03086792  0.97823590  0.81333903     0.21600
C738        C  0.50676340  0.54950599  0.81727512    -0.53200
C739        C  0.50067358  0.01142639  0.79477723     0.10800
C740        C  0.03727750  0.00013487  0.87372456    -0.52800
C741        C  0.03389823  0.96366207  0.85120132     0.11300
H742        H  0.08594117  0.57143600  0.85867081     0.15900
H743        H  0.02835724  0.94825981  0.79540146     0.01600
H744        H  0.49380165  0.58196094  0.80700873     0.16200
H745        H  0.03880405  0.99570948  0.90080567     0.15900
C746        C  0.41096263  0.00099266  0.68522834     0.31300
C747        C  0.46789276  0.00469403  0.75577862     0.31300
C748        C  0.41237817  0.53984137  0.71047859    -0.04900
C749        C  0.41917482  0.95731883  0.71078982    -0.05700
C750        C  0.44315064  0.00925708  0.68500003    -0.05600
C751        C  0.44030737  0.54083834  0.74670031    -0.04900
C752        C  0.44801411  0.95879330  0.74686207    -0.06100
C753        C  0.47238377  0.00844077  0.72124421    -0.05600
C754        C  0.43288389  0.57221739  0.76620518    -0.31000
N755        N  0.40451116  0.59486362  0.74163198     0.15500
C756        C  0.39106908  0.57454980  0.70730243    -0.31000
H757        H  0.36793140  0.58428732  0.68206776     0.17500
C758        C  0.45034352  0.91589678  0.76393438    -0.30000
N759        N  0.42391462  0.88910269  0.73898760     0.14200
C760        C  0.40492103  0.91426814  0.70665719    -0.30000
C761        C  0.49588825  0.98923519  0.71524907    -0.30300
N762        N  0.48497608  0.98886215  0.67788524     0.14700
H763        H  0.01804436  0.97174363  0.73624967     0.17400
C764        C  0.45207607  0.99879215  0.65900431    -0.30300
H765        H  0.43572644  0.99779828  0.62847543     0.17400
H766        H  0.38200094  0.90276078  0.68194877     0.17400
H767        H  0.44593012  0.57711568  0.79645733     0.17400
H768        H  0.46941667  0.90528046  0.79218831     0.17400
C769        C  0.27993102  0.79153748  0.63233956     0.87700
C770        C  0.25185349  0.78356883  0.63976923    -0.52500
C771        C  0.25665484  0.74630196  0.66321644     0.10700
C772        C  0.28980296  0.71978799  0.67664805     0.21600
C773        C  0.31094957  0.79544334  0.67174824    -0.53200
C774        C  0.31838325  0.75692597  0.69462173     0.10800
C775        C  0.28293800  0.74564159  0.61612789    -0.52800
C776        C  0.28749223  0.70791440  0.63901318     0.11300
H777        H  0.23092271  0.80695064  0.62927164     0.15900
H778        H  0.29376968  0.68912020  0.69537487     0.01600
H779        H  0.32367969  0.82847355  0.68137828     0.16200
H780        H  0.28125622  0.74309817  0.58893733     0.15900
C781        C  0.35164023  0.75249754  0.73305416     0.31300
C782        C  0.40879402  0.74656964  0.80344523     0.31300
C783        C  0.37997014  0.78741537  0.74091506    -0.04900
C784        C  0.34832038  0.75938209  0.76774574    -0.05700
C785        C  0.37024540  0.70555051  0.74278977    -0.05600
C786        C  0.40815513  0.78554608  0.77713857    -0.04900
C787        C  0.37689991  0.75438597  0.80365160    -0.05700
C788        C  0.39929966  0.70330507  0.77867096    -0.05600
C789        C  0.42896513  0.82217213  0.78033503    -0.31000
N790        N  0.41478899  0.84470841  0.74632700     0.15500
C791        C  0.38620708  0.82203308  0.72172220    -0.31000
H792        H  0.37164449  0.83018001  0.69187222     0.17500
C793        C  0.36665280  0.75253462  0.82949159    -0.30000
N794        N  0.33314071  0.75813326  0.81000710     0.14200
C795        C  0.32263058  0.76629232  0.77312572    -0.30000
C796        C  0.41358500  0.66111787  0.78239642    -0.30300
N797        N  0.39459379  0.63700691  0.74986240     0.14700
H798        H  0.43703014  0.65004237  0.80649988     0.17400
C799        C  0.36811968  0.66375885  0.72526615    -0.30300
H800        H  0.34970299  0.65444104  0.69651817     0.17400
H801        H  0.29926783  0.78129257  0.75256717     0.17400
H802        H  0.45180878  0.83250438  0.80572255     0.17400
H803        H  0.38203402  0.74651316  0.85979169     0.17400
In804      In  0.50400297  0.75090260  0.89984161     1.36900
C805        C  0.44219474  0.74479288  0.83980932     0.78800
O806        O  0.49987683  0.82902104  0.89389023    -0.59600
O807        O  0.53249114  0.79595336  0.88068583    -0.50500
C808        C  0.02788356  0.75440098  0.97411371     0.71500
O809        O  0.49711381  0.75235341  0.94990867    -0.45400
C810        C  0.52647147  0.66851087  0.89654971     0.76200
O811        O  0.44747027  0.75258475  0.87255584    -0.57200
O812        O  0.03883017  0.70619525  0.89288573    -0.47300
O813        O  0.46806751  0.73842183  0.83877693    -0.53700
C814        C  0.51981601  0.83340014  0.88232320     0.86400
O815        O  0.04626714  0.75555041  0.96034657    -0.55600
O816        O  0.50330096  0.67276593  0.90305288    -0.58900
C817        C  0.04017654  0.58789105  0.87926573    -0.12000
C818        C  0.53632756  0.62403252  0.89078213    -0.13600
C819        C  0.03107815  0.91614987  0.86154312    -0.12000
C820        C  0.52695104  0.87780572  0.87114332    -0.13600
C821        C  0.28129121  0.87058699  0.59868455    -0.12000
C822        C  0.27684875  0.83334580  0.60959967    -0.13600
C823        C  0.29330162  0.62389403  0.61791423    -0.12000
C824        C  0.29001694  0.66143278  0.62815057    -0.13600
C825        C  0.02684789  0.58335204  0.60960301    -0.12000
C826        C  0.03129072  0.62059363  0.59868880    -0.13600
C827        C  0.04001900  0.91143915  0.62815422    -0.12000
C828        C  0.04330374  0.87390057  0.61791760    -0.13600
C829        C  0.28633129  0.87404101  0.89078190    -0.12000
C830        C  0.29018115  0.83790347  0.87926150    -0.13600
C831        C  0.28107782  0.66616155  0.86154556    -0.12000
C832        C  0.27694959  0.62781414  0.87114654    -0.13600
In833      In  0.75400367  0.00090972  0.39984180     1.36900
C834        C  0.69219422  0.49480394  0.33980925     0.78800
O835        O  0.74988005  0.07902897  0.39389751    -0.59600
O836        O  0.78248659  0.04596276  0.38068038    -0.50500
C837        C  0.77788558  0.00440196  0.47411232     0.71500
O838        O  0.74711453  0.50235722  0.44990931    -0.45400
C839        C  0.77647295  0.41852125  0.39654837     0.76200
O840        O  0.69747057  0.00258898  0.37255662    -0.57200
O841        O  0.78883281  0.45621046  0.39288284    -0.47300
O842        O  0.71806693  0.48843494  0.33877633    -0.53700
C843        C  0.76981464  0.08340931  0.38232410     0.86400
O844        O  0.79626912  0.00555281  0.46034511    -0.55600
O845        O  0.75329924  0.42277475  0.40304634    -0.58900
C846        C  0.78812929  0.29770721  0.35673807     0.87700
C847        C  0.81610088  0.29551337  0.34895896    -0.52500
C848        C  0.81230800  0.26008582  0.32566671     0.10700
C849        C  0.78086668  0.22824473  0.31333695     0.21600
C850        C  0.75676491  0.29951673  0.31727355    -0.53200
C851        C  0.75067370  0.26143568  0.29477604     0.10800
C852        C  0.78727659  0.25014970  0.37372142    -0.52800
C853        C  0.78389597  0.21367479  0.35119937     0.11300
H854        H  0.83594356  0.32144191  0.35866621     0.15900
H855        H  0.77835485  0.19826683  0.29540035     0.01600
H856        H  0.74380374  0.33197212  0.30700704     0.16200
H857        H  0.78880322  0.24572711  0.40080272     0.15900
C858        C  0.66096254  0.25100242  0.18522724     0.31300
C859        C  0.71789277  0.25470401  0.25577746     0.31300
C860        C  0.66237992  0.28985453  0.21047626    -0.04900
C861        C  0.66917296  0.20733066  0.21079045    -0.05700
C862        C  0.69315104  0.25926122  0.18499861    -0.05600
C863        C  0.69030917  0.29085166  0.24669797    -0.04900
C864        C  0.69801223  0.20880521  0.24686263    -0.05700
C865        C  0.72238413  0.25844526  0.22124305    -0.05600
C866        C  0.68288586  0.32223133  0.26620264    -0.31000
N867        N  0.65451338  0.34487791  0.24162931     0.15500
C868        C  0.64107113  0.32456370  0.20729987    -0.31000
H869        H  0.61793311  0.33430054  0.18206543     0.17500
C870        C  0.70034088  0.16590936  0.26393556    -0.30000
N871        N  0.67391157  0.13911563  0.23898915     0.14200
C872        C  0.65491850  0.16428058  0.20665832    -0.30000
C873        C  0.74588780  0.23923361  0.21524932    -0.30300
N874        N  0.73497579  0.23885509  0.17788567     0.14700
H875        H  0.76804323  0.22174262  0.23624763     0.17400
C876        C  0.70207625  0.24878858  0.15900395    -0.30300
H877        H  0.68572662  0.24779198  0.12847513     0.17400
H878        H  0.63199882  0.15277293  0.18194958     0.17400
H879        H  0.69593175  0.32712921  0.29645484     0.17400
H880        H  0.71941427  0.15529278  0.29218937     0.17400
C881        C  0.52992897  0.04154538  0.13234071     0.87700
C882        C  0.50185144  0.03357269  0.13976973    -0.52500
C883        C  0.50665357  0.49630798  0.16321592     0.10700
C884        C  0.53980268  0.46979638  0.17664803     0.21600
C885        C  0.56094716  0.04545199  0.17174959    -0.53200
C886        C  0.56838191  0.50693591  0.19462183     0.10800
C887        C  0.53293747  0.49565152  0.11612815    -0.52800
C888        C  0.53749269  0.45792395  0.13901346     0.11300
H889        H  0.48091969  0.05695272  0.12927221     0.15900
H890        H  0.54377013  0.43912829  0.19537480     0.01600
H891        H  0.57367635  0.07848278  0.18138014     0.16200
H892        H  0.53125591  0.49310879  0.08893766     0.15900
C893        C  0.60163916  0.50250824  0.23305403     0.31300
C894        C  0.65879318  0.49658072  0.30344515     0.31300
C895        C  0.62996806  0.03742669  0.24091622    -0.04900
C896        C  0.59831913  0.50939047  0.26774558    -0.05700
C897        C  0.62024544  0.45556225  0.24278890    -0.05600
C898        C  0.65815330  0.03555728  0.27713961    -0.04900
C899        C  0.62689871  0.50439457  0.30365148    -0.05700
C900        C  0.64929972  0.45331693  0.27867009    -0.05600
C901        C  0.67896271  0.07218428  0.28033626    -0.31000
N902        N  0.66478587  0.09472144  0.24632853     0.15500
C903        C  0.63620410  0.07204586  0.22172366    -0.31000
H904        H  0.62164121  0.08019326  0.19187381     0.17500
C905        C  0.61665114  0.50254004  0.32949103    -0.30000
N906        N  0.58313880  0.50813635  0.31000621     0.14200
C907        C  0.57262876  0.51629732  0.27312510    -0.30000
C908        C  0.66358597  0.41113072  0.28239467    -0.30300
N909        N  0.64459539  0.38702033  0.24986024     0.14700
H910        H  0.68703141  0.40005550  0.30649808     0.17400
C911        C  0.61812069  0.41377166  0.22526441    -0.30300
H912        H  0.59970435  0.40445426  0.19651637     0.17400
H913        H  0.54926553  0.53129603  0.25256651     0.17400
H914        H  0.70180672  0.08251602  0.30572347     0.17400
H915        H  0.63203226  0.49651780  0.35979107     0.17400
In916      In  0.56516645  0.24965359  0.08941228     1.36900
C917        C  0.62733444  0.24820998  0.14912447     0.78800
O918        O  0.56815828  0.32780119  0.09285227    -0.59600
O919        O  0.53785721  0.29209549  0.10974150    -0.50500
C920        C  0.54136127  0.25422189  0.01513677     0.71500
O921        O  0.57205329  0.25119173  0.03933754    -0.45400
C922        C  0.54209926  0.16580349  0.09342285     0.76200
O923        O  0.62167233  0.25461326  0.11588697    -0.57200
O924        O  0.52923713  0.20294003  0.09535146    -0.47300
O925        O  0.60169711  0.24075588  0.15081832    -0.53700
C926        C  0.54962398  0.33042866  0.10630801     0.86400
O927        O  0.52304125  0.25601163  0.02891397    -0.55600
O928        O  0.56640677  0.17129845  0.08881622    -0.58900
In929      In  0.81516720  0.99963804  0.08941240     1.36900
C930        C  0.87733473  0.49819200  0.14912656     0.78800
O931        O  0.81816078  0.07778434  0.09285972    -0.59600
O932        O  0.78785351  0.04207532  0.10973869    -0.50500
C933        C  0.79136226  0.00421915  0.01513692     0.71500
O934        O  0.82205407  0.50118055  0.03933715    -0.45400
C935        C  0.79210165  0.41578342  0.09341792     0.76200
O936        O  0.87167312  0.00460268  0.11589038    -0.57200
O937        O  0.77924257  0.45291833  0.09535504    -0.47300
O938        O  0.85169695  0.49073318  0.15081858    -0.53700
C939        C  0.79962302  0.08040926  0.10631109     0.86400
O940        O  0.77304235  0.00600631  0.02891444    -0.55600
O941        O  0.81640530  0.42128124  0.08880462    -0.58900
C942        C  0.53812861  0.04769838  0.35673895     0.87700
C943        C  0.56610023  0.04550672  0.34895986    -0.52500
C944        C  0.56230758  0.51008339  0.32566670     0.10700
C945        C  0.53086763  0.47823926  0.31333719     0.21600
C946        C  0.00676236  0.04949871  0.31727911    -0.53200
C947        C  0.00067324  0.51141882  0.29477947     0.10800
C948        C  0.53727734  0.50014150  0.37372210    -0.52800
C949        C  0.53389802  0.46366754  0.35119985     0.11300
H950        H  0.58594201  0.07143664  0.35866670     0.15900
H951        H  0.52835684  0.44826227  0.29540028     0.01600
H952        H  0.99380013  0.08195338  0.30701362     0.16200
H953        H  0.53880408  0.49571760  0.40080344     0.15900
C954        C  0.91096223  0.50098494  0.18523025     0.31300
C955        C  0.96789231  0.50468676  0.25578078     0.31300
C956        C  0.91237635  0.03983368  0.21048222    -0.04900
C957        C  0.91917516  0.45731062  0.21079128    -0.05700
C958        C  0.94315026  0.50925122  0.18500215    -0.05600
C959        C  0.94030556  0.04083067  0.24670402    -0.04900
C960        C  0.94801438  0.45878524  0.24686360    -0.06100
C961        C  0.97238337  0.50843533  0.22124651    -0.05600
C962        C  0.93288213  0.07220978  0.26620893    -0.31000
N963        N  0.90450932  0.09485585  0.24163577     0.15500
C964        C  0.89106727  0.07454199  0.20730622    -0.31000
H965        H  0.86792991  0.08428010  0.18207130     0.17500
C966        C  0.95034462  0.41588795  0.26393527    -0.30000
N967        N  0.92391623  0.38909334  0.23898802     0.14200
C968        C  0.90492229  0.41425913  0.20665792    -0.30000
C969        C  0.99588818  0.48923013  0.21525174    -0.30300
N970        N  0.98497618  0.48885604  0.17788801     0.14700
H971        H  0.51804391  0.47174422  0.23624671     0.17400
C972        C  0.95207608  0.49878552  0.15900684    -0.30300
H973        H  0.93572657  0.49779071  0.12847797     0.17400
H974        H  0.88200249  0.40275151  0.18194925     0.17400
H975        H  0.94592860  0.07710852  0.29646108     0.17400
H976        H  0.96941781  0.40527153  0.29218904     0.17400
C977        C  0.77993191  0.29152773  0.13233858     0.87700
C978        C  0.75185375  0.28356179  0.13976746    -0.52500
C979        C  0.75665428  0.24629690  0.16321597     0.10700
C980        C  0.78980249  0.21978178  0.17664970     0.21600
C981        C  0.81095015  0.29543520  0.17174744    -0.53200
C982        C  0.81838317  0.25691944  0.19462242     0.10800
C983        C  0.78293904  0.24563016  0.11612915    -0.52800
C984        C  0.78749253  0.20790481  0.13901582     0.11300
H985        H  0.73092316  0.30694418  0.12926840     0.15900
H986        H  0.79376854  0.18911545  0.19537755     0.01600
H987        H  0.82368090  0.32846523  0.18137607     0.16200
H988        H  0.78125782  0.24308426  0.08893899     0.15900
C989        C  0.85164005  0.25249173  0.23305518     0.31300
C990        C  0.90879337  0.24656429  0.30344699     0.31300
C991        C  0.87997091  0.28740753  0.24091556    -0.04900
C992        C  0.84831996  0.25937975  0.26774617    -0.05700
C993        C  0.87024421  0.20554378  0.24279242    -0.05600
C994        C  0.90815566  0.28553848  0.27713935    -0.04900
C995        C  0.87689915  0.25438404  0.30365243    -0.05700
C996        C  0.89929818  0.20329844  0.27867388    -0.05600
C997        C  0.92896629  0.32216336  0.28033550    -0.31000
N998        N  0.91479082  0.34469878  0.24632716     0.15500
C999        C  0.88620868  0.32202383  0.22172239    -0.31000
H1000       H  0.87164628  0.33017052  0.19187235     0.17500
C1001       C  0.86665140  0.25253520  0.32949186    -0.30000
N1002       N  0.83313943  0.25813490  0.31000666     0.14200
C1003       C  0.82262982  0.26629213  0.27312517    -0.30000
C1004       C  0.91358324  0.16111080  0.28239985    -0.30300
N1005       N  0.89459212  0.13699955  0.24986597     0.14700
H1006       H  0.93702837  0.15003538  0.30650346     0.17400
C1007       C  0.86811834  0.16375172  0.22526923    -0.30300
H1008       H  0.84970219  0.15443412  0.19652119     0.17400
H1009       H  0.79926733  0.28129172  0.25256587     0.17400
H1010       H  0.95180966  0.33249600  0.30572323     0.17400
H1011       H  0.88203214  0.24651408  0.35979214     0.17400
In1012     In  0.00400239  0.25089583  0.39984412     1.36900
C1013       C  0.94219403  0.24478736  0.33981151     0.78800
O1014       O  0.99987770  0.32901426  0.39389277    -0.59600
O1015       O  0.03248835  0.29594415  0.38068386    -0.50500
C1016       C  0.52788501  0.25440414  0.47411087     0.71500
O1017       O  0.99711364  0.25234732  0.44991158    -0.45400
C1018       C  0.02647054  0.16850225  0.39655458     0.76200
O1019       O  0.94746957  0.25258089  0.37255784    -0.57200
O1020       O  0.53882830  0.20620156  0.39287578    -0.47300
O1021       O  0.96806681  0.23841404  0.33877959    -0.53700
C1022       C  0.01981510  0.33339183  0.38232312     0.86400
O1023       O  0.54626860  0.25555218  0.46034375    -0.55600
O1024       O  0.00329791  0.17275883  0.40305402    -0.58900
C1025       C  0.54017765  0.08789664  0.37926065    -0.12000
C1026       C  0.03632627  0.12402321  0.39078733    -0.13600
C1027       C  0.53107834  0.41615601  0.36154301    -0.12000
C1028       C  0.02695052  0.37779691  0.37114297    -0.13600
C1029       C  0.78129193  0.37057533  0.09868191    -0.12000
C1030       C  0.77684988  0.33333422  0.10959729    -0.13600
C1031       C  0.79330120  0.12388285  0.11791925    -0.12000
C1032       C  0.79001688  0.16142206  0.12815510    -0.13600
C1033       C  0.52684545  0.08335506  0.10960177    -0.12000
C1034       C  0.53128796  0.12059686  0.09868761    -0.13600
C1035       C  0.54001837  0.41144275  0.12815102    -0.12000
C1036       C  0.54330303  0.37390385  0.11791498    -0.13600
C1037       C  0.78632989  0.37404377  0.39078018    -0.12000
C1038       C  0.79017929  0.33790578  0.37926001    -0.13600
C1039       C  0.78107576  0.16616373  0.36154324    -0.12000
C1040       C  0.77694822  0.12781593  0.37114423    -0.13600
In1041     In  0.75400315  0.00091544  0.89984213     1.36900
C1042       C  0.69219405  0.49480562  0.83980918     0.78800
O1043       O  0.74988089  0.07903495  0.89389815    -0.59600
O1044       O  0.78248598  0.04596706  0.88067967    -0.50500
C1045       C  0.77788455  0.00440574  0.97411269     0.71500
O1046       O  0.74711355  0.50235727  0.94990941    -0.45400
C1047       C  0.77647272  0.41852394  0.89654721     0.76200
O1048       O  0.69747014  0.00259675  0.87255639    -0.57200
O1049       O  0.78883316  0.45621364  0.89288349    -0.47300
O1050       O  0.71806696  0.48843822  0.83877630    -0.53700
C1051       C  0.76981488  0.08341422  0.88232379     0.86400
O1052       O  0.79626823  0.00555781  0.96034568    -0.55600
O1053       O  0.75329817  0.42277650  0.90304389    -0.58900
C1054       C  0.78812968  0.29771105  0.85673591     0.87700
C1055       C  0.81610130  0.29551730  0.84895688    -0.52500
C1056       C  0.81230854  0.26008975  0.82566472     0.10700
C1057       C  0.78086732  0.22824846  0.81333496     0.21600
C1058       C  0.75676538  0.29952044  0.81727135    -0.53200
C1059       C  0.75067434  0.26143939  0.79477389     0.10800
C1060       C  0.78727700  0.25015357  0.87371929    -0.52800
C1061       C  0.78389654  0.21367859  0.85119739     0.11300
H1062       H  0.83594390  0.32144603  0.85866407     0.15900
H1063       H  0.77835564  0.19827056  0.79539845     0.01600
H1064       H  0.74380428  0.33197588  0.80700469     0.16200
H1065       H  0.78880346  0.24573110  0.90080052     0.15900
C1066       C  0.66096348  0.25100602  0.68522494     0.31300
C1067       C  0.71789360  0.25470782  0.75577517     0.31300
C1068       C  0.66238060  0.28985793  0.71047405    -0.04900
C1069       C  0.66917419  0.20733404  0.71078801    -0.05700
C1070       C  0.69315192  0.25926553  0.68499632    -0.05600
C1071       C  0.69030981  0.29085505  0.74669576    -0.04900
C1072       C  0.69801335  0.20880881  0.74686021    -0.05700
C1073       C  0.72238502  0.25844971  0.72124078    -0.05600
C1074       C  0.68288646  0.32223441  0.76620055    -0.31000
N1075       N  0.65451401  0.34488107  0.74162733     0.15500
C1076       C  0.64107175  0.32456700  0.70729781    -0.31000
H1077       H  0.61793372  0.33430392  0.68206339     0.17500
C1078       C  0.70034196  0.16591327  0.76393353    -0.30000
N1079       N  0.67391277  0.13911932  0.73898722     0.14200
C1080       C  0.65491974  0.16428393  0.70665613    -0.30000
C1081       C  0.74588875  0.23923826  0.71524701    -0.30300
N1082       N  0.73497671  0.23885970  0.67788333     0.14700
H1083       H  0.76804405  0.22174714  0.73624527     0.17400
C1084       C  0.70207716  0.24879296  0.65900168    -0.30300
H1085       H  0.68572751  0.24779636  0.62847283     0.17400
H1086       H  0.63199997  0.15277628  0.68194767     0.17400
H1087       H  0.69593238  0.32713205  0.79645282     0.17400
H1088       H  0.71941502  0.15529729  0.79218757     0.17400
C1089       C  0.52992920  0.04155005  0.63233957     0.87700
C1090       C  0.50185156  0.03357835  0.63976864    -0.52500
C1091       C  0.50665341  0.49630847  0.66321561     0.10700
C1092       C  0.53980278  0.46979766  0.67664768     0.21600
C1093       C  0.56094737  0.04545732  0.67174847    -0.53200
C1094       C  0.56838158  0.50693779  0.69462189     0.10800
C1095       C  0.53293757  0.49565430  0.61612811    -0.52800
C1096       C  0.53749299  0.45792623  0.63901300     0.11300
H1097       H  0.48091978  0.05695843  0.62927065     0.15900
H1098       H  0.54377042  0.43912927  0.69537414     0.01600
H1099       H  0.57367669  0.07848813  0.68137843     0.16200
H1100       H  0.53125607  0.49311231  0.58893751     0.15900
C1101       C  0.60163885  0.50251019  0.73305407     0.31300
C1102       C  0.65879304  0.49658238  0.80344501     0.31300
C1103       C  0.62996818  0.03743249  0.74091572    -0.04900
C1104       C  0.59831874  0.50938996  0.76774586    -0.05700
C1105       C  0.62024590  0.45556495  0.74278796    -0.05600
C1106       C  0.65815343  0.03556324  0.77713911    -0.04900
C1107       C  0.62689845  0.50439388  0.80365161    -0.05700
C1108       C  0.64930028  0.45331947  0.77866905    -0.05600
C1109       C  0.67896332  0.07218931  0.78033524    -0.31000
N1110       N  0.66478663  0.09472579  0.74632720     0.15500
C1111       C  0.63620455  0.07205064  0.72172274    -0.31000
H1112       H  0.62164169  0.08019747  0.69187273     0.17500
C1113       C  0.61665110  0.50253806  0.82949136    -0.30000
N1114       N  0.58313871  0.50813368  0.81000684     0.14200
C1115       C  0.57262845  0.51629565  0.77312578    -0.30000
C1116       C  0.66358678  0.41113356  0.78239310    -0.30300
N1117       N  0.64459615  0.38702350  0.74985846     0.14700
H1118       H  0.68703213  0.40005815  0.80649639     0.17400
C1119       C  0.61812122  0.41377470  0.72526305    -0.30300
H1120       H  0.59970458  0.40445727  0.69651509     0.17400
H1121       H  0.54926524  0.53129483  0.75256771     0.17400
H1122       H  0.70180755  0.08252079  0.80572220     0.17400
H1123       H  0.63203249  0.49651578  0.85979138     0.17400
In1124     In  0.56516757  0.24965697  0.58941007     1.36900
C1125       C  0.62733547  0.24821341  0.64912220     0.78800
O1126       O  0.56815897  0.32780476  0.59285035    -0.59600
O1127       O  0.53785799  0.29209844  0.60973930    -0.50500
C1128       C  0.54136275  0.25422552  0.51513477     0.71500
O1129       O  0.57205477  0.25119563  0.53933557    -0.45400
C1130       C  0.54210002  0.16580680  0.59342016     0.76200
O1131       O  0.62167340  0.25461712  0.61588477    -0.57200
O1132       O  0.52923815  0.20294349  0.59534896    -0.47300
O1133       O  0.60169816  0.24075878  0.65081599    -0.53700
C1134       C  0.54962463  0.33043186  0.60630607     0.86400
O1135       O  0.52304265  0.25601519  0.52891186    -0.55600
O1136       O  0.56640750  0.17130155  0.58881344    -0.58900
In1137     In  0.81516829  0.99964167  0.58941196     1.36900
C1138       C  0.87733521  0.49819976  0.64912612     0.78800
O1139       O  0.81816171  0.07778847  0.59285718    -0.59600
O1140       O  0.78785544  0.04208086  0.60973816    -0.50500
C1141       C  0.79136337  0.00421794  0.51513650     0.71500
O1142       O  0.82205525  0.50118792  0.53933695    -0.45400
C1143       C  0.79210263  0.41579062  0.59341740     0.76200
O1144       O  0.87167422  0.00460555  0.61588977    -0.57200
O1145       O  0.77924227  0.45292534  0.59535255    -0.47300
O1146       O  0.85169741  0.49074059  0.65081803    -0.53700
C1147       C  0.79962446  0.08041448  0.60630915     0.86400
O1148       O  0.77304341  0.00600640  0.52891388    -0.55600
O1149       O  0.81640749  0.42128884  0.58880635    -0.58900
C1150       C  0.53812787  0.04769773  0.85673969     0.87700
C1151       C  0.56609940  0.04550846  0.84896031    -0.52500
C1152       C  0.56230774  0.51008020  0.82566771     0.10700
C1153       C  0.53086738  0.47823668  0.81333760     0.21600
C1154       C  0.00676314  0.04950346  0.81727827    -0.53200
C1155       C  0.00067337  0.51142490  0.79477932     0.10800
C1156       C  0.53727667  0.50013858  0.87372242    -0.52800
C1157       C  0.53389721  0.46366472  0.85120000     0.11300
H1158       H  0.58594086  0.07143912  0.85866768     0.15900
H1159       H  0.52835645  0.44825989  0.79540041     0.01600
H1160       H  0.99380109  0.08195819  0.80701254     0.16200
H1161       H  0.53880321  0.49571455  0.90080359     0.15900
C1162       C  0.91096267  0.50099231  0.68522984     0.31300
C1163       C  0.96789252  0.50469356  0.75578046     0.31300
C1164       C  0.91237762  0.03983874  0.71048100    -0.04900
C1165       C  0.91917532  0.45731783  0.71079063    -0.05700
C1166       C  0.94315078  0.50925833  0.68500185    -0.05600
C1167       C  0.94030665  0.04083578  0.74670291    -0.04900
C1168       C  0.94801441  0.45879224  0.74686301    -0.06100
C1169       C  0.97238384  0.50844200  0.72124636    -0.05600
C1170       C  0.93288317  0.07221548  0.76620745    -0.31000
N1171       N  0.90451057  0.09486181  0.74163390     0.15500
C1172       C  0.89106867  0.07454760  0.70730449    -0.31000
H1173       H  0.86793143  0.08428565  0.68206944     0.17500
C1174       C  0.95034473  0.41589474  0.76393434    -0.30000
N1175       N  0.92391653  0.38910011  0.73898682     0.14200
C1176       C  0.90492259  0.41426614  0.70665684    -0.30000
C1177       C  0.99588828  0.48923480  0.71525188    -0.30300
N1178       N  0.98497640  0.48885960  0.67788824     0.14700
H1179       H  0.51804388  0.47174261  0.73624627     0.17400
C1180       C  0.95207653  0.49879046  0.65900687    -0.30300
H1181       H  0.93572704  0.49779505  0.62847800     0.17400
H1182       H  0.88200292  0.40275853  0.68194801     0.17400
H1183       H  0.94592931  0.07711438  0.79645947     0.17400
H1184       H  0.96941790  0.40527814  0.79218806     0.17400
C1185       C  0.77993271  0.29153378  0.63233653     0.87700
C1186       C  0.75185446  0.28356699  0.63976519    -0.52500
C1187       C  0.75665511  0.24630184  0.66321350     0.10700
C1188       C  0.78980351  0.21978717  0.67664718     0.21600
C1189       C  0.81095081  0.29544117  0.67174553    -0.53200
C1190       C  0.81838395  0.25692514  0.69462026     0.10800
C1191       C  0.78294020  0.24563657  0.61612689    -0.52800
C1192       C  0.78749382  0.20791083  0.63901328     0.11300
H1193       H  0.73092372  0.30694919  0.62926627     0.15900
H1194       H  0.79376968  0.18912061  0.69537486     0.01600
H1195       H  0.82368129  0.32847126  0.68137441     0.16200
H1196       H  0.78125911  0.24309121  0.58893677     0.15900
C1197       C  0.85164074  0.25249749  0.73305315     0.31300
C1198       C  0.90879387  0.24656995  0.80344503     0.31300
C1199       C  0.87997146  0.28741372  0.74091384    -0.04900
C1200       C  0.84832048  0.25938491  0.76774412    -0.05700
C1201       C  0.87024514  0.20554969  0.74279021    -0.05600
C1202       C  0.90815614  0.28554463  0.77713770    -0.04900
C1203       C  0.87689960  0.25438902  0.80365039    -0.05700
C1204       C  0.89929900  0.20330434  0.77867176    -0.05600
C1205       C  0.92896670  0.32216980  0.78033407    -0.31000
N1206       N  0.91479116  0.34470543  0.74632578     0.15500
C1207       C  0.88620912  0.32203042  0.72172087    -0.31000
H1208       H  0.87164677  0.33017730  0.69187089     0.17500
C1209       C  0.86665188  0.25253955  0.82948983    -0.30000
N1210       N  0.83313987  0.25813913  0.81000456     0.14200
C1211       C  0.82263035  0.26629685  0.77312319    -0.30000
C1212       C  0.91358417  0.16111678  0.78239781    -0.30300
N1213       N  0.89459330  0.13700560  0.74986382     0.14700
H1214       H  0.93702918  0.15004132  0.80650158     0.17400
C1215       C  0.86811951  0.16375772  0.72526700    -0.30300
H1216       H  0.84970339  0.15444002  0.69651892     0.17400
H1217       H  0.79926776  0.28129667  0.75256389     0.17400
H1218       H  0.95180997  0.33250237  0.80572176     0.17400
H1219       H  0.88203251  0.24651826  0.85978996     0.17400
In1220     In  0.00400202  0.25090042  0.89984324     1.36900
C1221       C  0.94219422  0.24479277  0.83980977     0.78800
O1222       O  0.99987714  0.32901885  0.89389282    -0.59600
O1223       O  0.03248808  0.29594958  0.88068388    -0.50500
C1224       C  0.52788363  0.25440107  0.97411281     0.71500
O1225       O  0.99711283  0.25234987  0.94991038    -0.45400
C1226       C  0.02647041  0.16850729  0.89655324     0.76200
O1227       O  0.94746916  0.25258517  0.87255600    -0.57200
O1228       O  0.53882849  0.20619911  0.89288011    -0.47300
O1229       O  0.96806729  0.23842008  0.83877834    -0.53700
C1230       C  0.01981454  0.33339695  0.88232320     0.86400
O1231       O  0.54626743  0.25554877  0.96034596    -0.55600
O1232       O  0.00329754  0.17276339  0.90305236    -0.58900
C1233       C  0.54017639  0.08789477  0.87926218    -0.12000
C1234       C  0.03632661  0.12402847  0.89078615    -0.13600
C1235       C  0.53107765  0.41615310  0.86154328    -0.12000
C1236       C  0.02694960  0.37780229  0.87114305    -0.13600
C1237       C  0.78129280  0.37058231  0.59868087    -0.12000
C1238       C  0.77685065  0.33334080  0.60959567    -0.13600
C1239       C  0.79330274  0.12388882  0.61791659    -0.12000
C1240       C  0.79001844  0.16142823  0.62815229    -0.13600
C1241       C  0.52684593  0.08335898  0.60959989    -0.12000
C1242       C  0.53128864  0.12060029  0.59868517    -0.13600
C1243       C  0.54001881  0.41144542  0.62814991    -0.12000
C1244       C  0.54330357  0.37390686  0.61791339    -0.13600
C1245       C  0.78632999  0.37404704  0.89077848    -0.12000
C1246       C  0.79017958  0.33790951  0.87925789    -0.13600
C1247       C  0.78107623  0.16616762  0.86154144    -0.12000
C1248       C  0.77694860  0.12782029  0.87114313    -0.13600
In1249     In  0.75400322  0.50091177  0.39984156     1.36900
C1250       C  0.69219477  0.99480141  0.33980936     0.78800
O1251       O  0.74988055  0.57903104  0.39389694    -0.59600
O1252       O  0.78248601  0.54596301  0.38067901    -0.50500
C1253       C  0.77788541  0.50440509  0.47411214     0.71500
O1254       O  0.74711470  0.00235478  0.44990936    -0.45400
C1255       C  0.77647379  0.91852009  0.39654757     0.76200
O1256       O  0.69747013  0.50259309  0.37255633    -0.57200
O1257       O  0.78883349  0.95620974  0.39288253    -0.47300
O1258       O  0.71806759  0.98843396  0.33877631    -0.53700
C1259       C  0.76981480  0.58341016  0.38232295     0.86400
O1260       O  0.79626883  0.50555629  0.46034477    -0.55600
O1261       O  0.75330012  0.92277268  0.40304572    -0.58900
C1262       C  0.78813053  0.79770704  0.35673632     0.87700
C1263       C  0.81610218  0.79551316  0.34895734    -0.52500
C1264       C  0.81230939  0.76008549  0.32566523     0.10700
C1265       C  0.78086812  0.72824436  0.31333546     0.21600
C1266       C  0.75676624  0.79951647  0.31727171    -0.53200
C1267       C  0.75067512  0.76143525  0.29477435     0.10800
C1268       C  0.78727781  0.75014960  0.37371972    -0.52800
C1269       C  0.78389734  0.71367458  0.35119785     0.11300
H1270       H  0.83594485  0.82144176  0.35866455     0.15900
H1271       H  0.77835641  0.69826634  0.29539899     0.01600
H1272       H  0.74380511  0.83197185  0.30700506     0.16200
H1273       H  0.78880419  0.74572718  0.40080093     0.15900
C1274       C  0.66096405  0.75100178  0.18522550     0.31300
C1275       C  0.71789424  0.75470340  0.25577573     0.31300
C1276       C  0.66238147  0.78985405  0.21047443    -0.04900
C1277       C  0.66917440  0.70733005  0.21078873    -0.05700
C1278       C  0.69315255  0.75926039  0.18499687    -0.05600
C1279       C  0.69031069  0.79085108  0.24669614    -0.04900
C1280       C  0.69801364  0.70880463  0.24686094    -0.05700
C1281       C  0.72238563  0.75844454  0.22124134    -0.05600
C1282       C  0.68288734  0.82223046  0.26620093    -0.31000
N1283       N  0.65451490  0.84487718  0.24162768     0.15500
C1284       C  0.64107270  0.82456326  0.20729813    -0.31000
H1285       H  0.61793468  0.83430024  0.18206373     0.17500
C1286       C  0.70034214  0.66590893  0.26393403    -0.30000
N1287       N  0.67391281  0.63911517  0.23898762     0.14200
C1288       C  0.65491990  0.66427999  0.20665668    -0.30000
C1289       C  0.74588939  0.73923288  0.21524775    -0.30300
N1290       N  0.73497735  0.73885405  0.17788409     0.14700
H1291       H  0.76804477  0.72174209  0.23624606     0.17400
C1292       C  0.70207781  0.74878735  0.15900232    -0.30300
H1293       H  0.68572822  0.74779067  0.12847347     0.17400
H1294       H  0.63200016  0.65277233  0.18194794     0.17400
H1295       H  0.69593312  0.82712791  0.29645314     0.17400
H1296       H  0.71941532  0.65529257  0.29218791     0.17400
C1297       C  0.52992889  0.54154662  0.13233969     0.87700
C1298       C  0.50185130  0.53357540  0.13976891    -0.52500
C1299       C  0.50665398  0.99630457  0.16321620     0.10700
C1300       C  0.53980330  0.96979378  0.17664794     0.21600
C1301       C  0.56094720  0.54545355  0.17174851    -0.53200
C1302       C  0.56838217  0.00693378  0.19462234     0.10800
C1303       C  0.53293795  0.99565119  0.11612845    -0.52800
C1304       C  0.53749345  0.95792285  0.13901315     0.11300
H1305       H  0.48091974  0.55695577  0.12927108     0.15900
H1306       H  0.54377099  0.93912512  0.19537429     0.01600
H1307       H  0.57367678  0.57848411  0.18137845     0.16200
H1308       H  0.53125638  0.99310966  0.08893785     0.15900
C1309       C  0.60163946  0.00250593  0.23305441     0.31300
C1310       C  0.65879367  0.99657823  0.30344531     0.31300
C1311       C  0.62996824  0.53742791  0.24091548    -0.04900
C1312       C  0.59831942  0.00938630  0.26774615    -0.05700
C1313       C  0.62024634  0.95556053  0.24278848    -0.05600
C1314       C  0.65815341  0.53555860  0.27713894    -0.04900
C1315       C  0.62689912  0.00439031  0.30365191    -0.05700
C1316       C  0.64930074  0.95331512  0.27866956    -0.05600
C1317       C  0.67896330  0.57218472  0.28033522    -0.31000
N1318       N  0.66478677  0.59472136  0.24632730     0.15500
C1319       C  0.63620472  0.57204619  0.22172265    -0.31000
H1320       H  0.62164184  0.58019331  0.19187271     0.17500
C1321       C  0.61665182  0.00253561  0.32949174    -0.30000
N1322       N  0.58313943  0.00813173  0.31000711     0.14200
C1323       C  0.57262917  0.01629284  0.27312598    -0.30000
C1324       C  0.66358741  0.91112937  0.28239358    -0.30300
N1325       N  0.64459688  0.88701934  0.24985891     0.14700
H1326       H  0.68703289  0.90005415  0.30649680     0.17400
C1327       C  0.61812183  0.91377040  0.22526352    -0.30300
H1328       H  0.59970529  0.90445301  0.19651555     0.17400
H1329       H  0.54926599  0.03129200  0.25256772     0.17400
H1330       H  0.70180741  0.58251639  0.30572243     0.17400
H1331       H  0.63203311  0.99651389  0.35979168     0.17400
In1332     In  0.56516795  0.74965335  0.08941081     1.36900
C1333       C  0.62733597  0.74820939  0.14912282     0.78800
O1334       O  0.56815967  0.82780110  0.09285065    -0.59600
O1335       O  0.53785882  0.79209531  0.10974012    -0.50500
C1336       C  0.54136256  0.75422228  0.01513536     0.71500
O1337       O  0.57205460  0.75119203  0.03933602    -0.45400
C1338       C  0.54210016  0.66580348  0.09342090     0.76200
O1339       O  0.62167384  0.75461251  0.11588532    -0.57200
O1340       O  0.52923859  0.70294028  0.09535005    -0.47300
O1341       O  0.60169867  0.74075555  0.15081678    -0.53700
C1342       C  0.54962547  0.83042853  0.10630654     0.86400
O1343       O  0.52304262  0.75601193  0.02891267    -0.55600
O1344       O  0.56640752  0.67129796  0.08881394    -0.58900
In1345     In  0.81516762  0.49963605  0.08941222     1.36900
C1346       C  0.87733420  0.99819399  0.14912696     0.78800
O1347       O  0.81816150  0.57778249  0.09285851    -0.59600
O1348       O  0.78785460  0.54207470  0.10973858    -0.50500
C1349       C  0.79136226  0.50421610  0.01513674     0.71500
O1350       O  0.82205407  0.00118411  0.03933748    -0.45400
C1351       C  0.79210197  0.91578448  0.09341723     0.76200
O1352       O  0.87167358  0.50459954  0.11588985    -0.57200
O1353       O  0.77924239  0.95291880  0.09535453    -0.47300
O1354       O  0.85169641  0.99073422  0.15081877    -0.53700
C1355       C  0.79962398  0.58040829  0.10631012     0.86400
O1356       O  0.77304248  0.50600417  0.02891439    -0.55600
O1357       O  0.81640564  0.92128340  0.08880410    -0.58900
C1358       C  0.53812778  0.54770000  0.35673878     0.87700
C1359       C  0.56609908  0.54550995  0.34895905    -0.52500
C1360       C  0.56230845  0.01007952  0.32566788     0.10700
C1361       C  0.53086794  0.97823645  0.31333816     0.21600
C1362       C  0.00676296  0.54949801  0.31727829    -0.53200
C1363       C  0.00067264  0.01141983  0.29478005     0.10800
C1364       C  0.53727727  0.00014050  0.37372258    -0.52800
C1365       C  0.53389765  0.96366590  0.35120072     0.11300
H1366       H  0.58594067  0.57144037  0.35866607     0.15900
H1367       H  0.52835690  0.94825903  0.29540153     0.01600
H1368       H  0.99380069  0.58195267  0.30701265     0.16200
H1369       H  0.53880375  0.99571747  0.40080380     0.15900
C1370       C  0.91096164  0.00098677  0.18523074     0.31300
C1371       C  0.96789170  0.00468830  0.25578125     0.31300
C1372       C  0.91237729  0.53983268  0.21048130    -0.04900
C1373       C  0.91917496  0.95731186  0.21079124    -0.05700
C1374       C  0.94314956  0.00925438  0.18500266    -0.05600
C1375       C  0.94030643  0.54082971  0.24670314    -0.04900
C1376       C  0.94801417  0.95878642  0.24686355    -0.06100
C1377       C  0.97238273  0.00843813  0.22124704    -0.05600
C1378       C  0.93288294  0.57220879  0.26620803    -0.31000
N1379       N  0.90451026  0.59485505  0.24163468     0.15500
C1380       C  0.89106829  0.57454120  0.20730515    -0.31000
H1381       H  0.86793095  0.58427931  0.18207020     0.17500
C1382       C  0.95034501  0.91588861  0.26393469    -0.30000
N1383       N  0.92391700  0.88909370  0.23898721     0.14200
C1384       C  0.90492271  0.91425981  0.20665737    -0.30000
C1385       C  0.99588732  0.98923253  0.21525212    -0.30300
N1386       N  0.98497528  0.98885850  0.17788843     0.14700
H1387       H  0.51804441  0.97174006  0.23624711     0.17400
C1388       C  0.95207529  0.99878853  0.15900733    -0.30300
H1389       H  0.93572571  0.99779361  0.12847847     0.17400
H1390       H  0.88200306  0.90275197  0.18194857     0.17400
H1391       H  0.94592910  0.57710731  0.29646008     0.17400
H1392       H  0.96941844  0.90527201  0.29218836     0.17400
C1393       C  0.77993339  0.79152757  0.13233721     0.87700
C1394       C  0.75185515  0.78356119  0.13976591    -0.52500
C1395       C  0.75665584  0.74629622  0.16321443     0.10700
C1396       C  0.78980413  0.71978140  0.17664818     0.21600
C1397       C  0.81095155  0.79543515  0.17174619    -0.53200
C1398       C  0.81838467  0.75691919  0.19462102     0.10800
C1399       C  0.78294076  0.74563015  0.11612777    -0.52800
C1400       C  0.78749426  0.70790468  0.13901433     0.11300
H1401       H  0.73092444  0.80694329  0.12926678     0.15900
H1402       H  0.79377027  0.68911500  0.19537602     0.01600
H1403       H  0.82368217  0.82846518  0.18137494     0.16200
H1404       H  0.78125952  0.74308442  0.08893760     0.15900
C1405       C  0.85164149  0.75249133  0.23305382     0.31300
C1406       C  0.90879471  0.74656375  0.30344572     0.31300
C1407       C  0.87997242  0.78740696  0.24091425    -0.04900
C1408       C  0.84832135  0.75937943  0.26774477    -0.05700
C1409       C  0.87024557  0.70554331  0.24279107    -0.05600
C1410       C  0.90815713  0.78553790  0.27713810    -0.04900
C1411       C  0.87690048  0.75438359  0.30365105    -0.05700
C1412       C  0.89929948  0.70329789  0.27867261    -0.05600
C1413       C  0.92896764  0.82216302  0.28033436    -0.31000
N1414       N  0.91479209  0.84469858  0.24632601     0.15500
C1415       C  0.88621008  0.82202345  0.22172116    -0.31000
H1416       H  0.87164758  0.83017039  0.19187116     0.17500
C1417       C  0.86665272  0.75253464  0.32949044    -0.30000
N1418       N  0.83314078  0.75813452  0.31000519     0.14200
C1419       C  0.82263122  0.76629182  0.27312376    -0.30000
C1420       C  0.91358433  0.66111010  0.28239867    -0.30300
N1421       N  0.89459324  0.63699890  0.24986480     0.14700
H1422       H  0.93702941  0.65003448  0.30650247     0.17400
C1423       C  0.86811961  0.66375122  0.22526792    -0.30300
H1424       H  0.84970348  0.65443361  0.19651990     0.17400
H1425       H  0.79926865  0.78129144  0.25256438     0.17400
H1426       H  0.95181078  0.83249584  0.30572212     0.17400
H1427       H  0.88203339  0.74651340  0.35979069     0.17400
In1428     In  0.00400319  0.75089506  0.39984398     1.36900
C1429       C  0.94219518  0.74478665  0.33981053     0.78800
O1430       O  0.99987765  0.82901329  0.39389240    -0.59600
O1431       O  0.03248941  0.79594417  0.38068467    -0.50500
C1432       C  0.52788370  0.75440375  0.47411286     0.71500
O1433       O  0.99711404  0.75234634  0.44991115    -0.45400
C1434       C  0.02647147  0.66850188  0.39655408     0.76200
O1435       O  0.94747026  0.75257952  0.37255677    -0.57200
O1436       O  0.53882697  0.70620162  0.39287749    -0.47300
O1437       O  0.96806825  0.73841374  0.33877912    -0.53700
C1438       C  0.01981536  0.83339144  0.38232324     0.86400
O1439       O  0.54626720  0.75555177  0.46034563    -0.55600
O1440       O  0.00329877  0.67275814  0.40305346    -0.58900
C1441       C  0.54017663  0.58789741  0.37926113    -0.12000
C1442       C  0.03632725  0.62402303  0.39078661    -0.13600
C1443       C  0.53107759  0.91615476  0.36154438    -0.12000
C1444       C  0.02695036  0.87779674  0.37114303    -0.13600
C1445       C  0.78129276  0.87057581  0.09868081    -0.12000
C1446       C  0.77685116  0.83333424  0.10959597    -0.13600
C1447       C  0.79330241  0.62388241  0.11791781    -0.12000
C1448       C  0.79001834  0.66142191  0.12815345    -0.13600
C1449       C  0.52684576  0.58335562  0.10960015    -0.12000
C1450       C  0.53128853  0.62059706  0.09868568    -0.13600
C1451       C  0.54001947  0.91144225  0.12814992    -0.12000
C1452       C  0.54330447  0.87390370  0.11791360    -0.13600
C1453       C  0.78633092  0.87404314  0.39077877    -0.12000
C1454       C  0.79018046  0.83790554  0.37925827    -0.13600
C1455       C  0.78107678  0.66616365  0.36154164    -0.12000
C1456       C  0.77694886  0.62781617  0.37114275    -0.13600
In1457     In  0.75400277  0.50091361  0.89984189     1.36900
C1458       C  0.69219451  0.99480808  0.83980934     0.78800
O1459       O  0.74987978  0.57903314  0.89389845    -0.59600
O1460       O  0.78248567  0.54596669  0.88068047    -0.50500
C1461       C  0.77788445  0.50440278  0.97411253     0.71500
O1462       O  0.74711370  0.00235911  0.94990949    -0.45400
C1463       C  0.77647276  0.91852510  0.89654835     0.76200
O1464       O  0.69746968  0.50259324  0.87255637    -0.57200
O1465       O  0.78883393  0.95621440  0.89288518    -0.47300
O1466       O  0.71806737  0.98843929  0.83877665    -0.53700
C1467       C  0.76981410  0.58341337  0.88232463     0.86400
O1468       O  0.79626805  0.50555426  0.96034542    -0.55600
O1469       O  0.75329775  0.92277845  0.90304415    -0.58900
C1470       C  0.78812920  0.79771110  0.85673788     0.87700
C1471       C  0.81610086  0.79551699  0.84895889    -0.52500
C1472       C  0.81230804  0.76008936  0.82566674     0.10700
C1473       C  0.78086666  0.72824836  0.81333695     0.21600
C1474       C  0.75676495  0.79952067  0.81727328    -0.53200
C1475       C  0.75067378  0.76143952  0.79477586     0.10800
C1476       C  0.78727629  0.75015365  0.87372123    -0.52800
C1477       C  0.78389577  0.71367859  0.85119936     0.11300
H1478       H  0.83594356  0.82144559  0.85866607     0.15900
H1479       H  0.77835490  0.69827044  0.79540044     0.01600
H1480       H  0.74380397  0.83197609  0.80700664     0.16200
H1481       H  0.78880265  0.74573124  0.90080240     0.15900
C1482       C  0.66096275  0.75100639  0.68522700     0.31300
C1483       C  0.71789292  0.75470795  0.75577722     0.31300
C1484       C  0.66238007  0.78985844  0.71047604    -0.04900
C1485       C  0.66917319  0.70733458  0.71079012    -0.05700
C1486       C  0.69315121  0.75926537  0.68499837    -0.05600
C1487       C  0.69030930  0.79085555  0.74669774    -0.04900
C1488       C  0.69801237  0.70880915  0.74686234    -0.05700
C1489       C  0.72238430  0.75844940  0.72124280    -0.05600
C1490       C  0.68288607  0.82223531  0.76620241    -0.31000
N1491       N  0.65451367  0.84488203  0.74162909     0.15500
C1492       C  0.64107135  0.82456774  0.70729964    -0.31000
H1493       H  0.61793341  0.83430471  0.68206518     0.17500
C1494       C  0.70034078  0.66591351  0.76393553    -0.30000
N1495       N  0.67391138  0.63911985  0.73898904     0.14200
C1496       C  0.65491856  0.66428467  0.70665811    -0.30000
C1497       C  0.74588801  0.73923793  0.71524901    -0.30300
N1498       N  0.73497594  0.73885964  0.67788530     0.14700
H1499       H  0.76804329  0.72174681  0.73624717     0.17400
C1500       C  0.70207641  0.74879296  0.65900367    -0.30300
H1501       H  0.68572676  0.74779646  0.62847482     0.17400
H1502       H  0.63199875  0.65277715  0.68194938     0.17400
H1503       H  0.69593197  0.82713320  0.79645462     0.17400
H1504       H  0.71941381  0.65529723  0.79218936     0.17400
C1505       C  0.52992844  0.54154879  0.63233989     0.87700
C1506       C  0.50185078  0.53357628  0.63976879    -0.52500
C1507       C  0.50665405  0.99631092  0.66321573     0.10700
C1508       C  0.53980332  0.96979983  0.67664804     0.21600
C1509       C  0.56094654  0.54545572  0.67174885    -0.53200
C1510       C  0.56838222  0.00693977  0.69462191     0.10800
C1511       C  0.53293809  0.99565503  0.61612817    -0.52800
C1512       C  0.53749349  0.95792748  0.63901357     0.11300
H1513       H  0.48091900  0.55695618  0.62927102     0.15900
H1514       H  0.54377093  0.93913174  0.69537487     0.01600
H1515       H  0.57367567  0.57848657  0.68137915     0.16200
H1516       H  0.53125641  0.99311233  0.58893761     0.15900
C1517       C  0.60163938  0.00251230  0.73305420     0.31300
C1518       C  0.65879353  0.99658488  0.80344518     0.31300
C1519       C  0.62996734  0.53743137  0.74091613    -0.04900
C1520       C  0.59831934  0.00939373  0.76774589    -0.05700
C1521       C  0.62024600  0.95556662  0.74278879    -0.05600
C1522       C  0.65815259  0.53556182  0.77713953    -0.04900
C1523       C  0.62689904  0.00439785  0.80365169    -0.05700
C1524       C  0.64930034  0.95332133  0.77866989    -0.05600
C1525       C  0.67896214  0.57218866  0.78033621    -0.31000
N1526       N  0.66478535  0.59472595  0.74632856     0.15500
C1527       C  0.63620346  0.57205061  0.72172365    -0.31000
H1528       H  0.62164074  0.58019792  0.69187381     0.17500
C1529       C  0.61665161  0.00254156  0.82949136    -0.30000
N1530       N  0.58313919  0.00813705  0.81000675     0.14200
C1531       C  0.57262893  0.01629893  0.77312570    -0.30000
C1532       C  0.66358660  0.91113510  0.78239443    -0.30300
N1533       N  0.64459593  0.88702470  0.74985998     0.14700
H1534       H  0.68703194  0.90005975  0.80649786     0.17400
C1535       C  0.61812119  0.91377601  0.72526427    -0.30300
H1536       H  0.59970468  0.90445843  0.69651634     0.17400
H1537       H  0.54926550  0.03129745  0.75256745     0.17400
H1538       H  0.70180633  0.58252004  0.80572339     0.17400
H1539       H  0.63203287  0.99651865  0.85979124     0.17400
In1540     In  0.56516689  0.74965699  0.58941223     1.36900
C1541       C  0.62733473  0.74821385  0.64912427     0.78800
O1542       O  0.56815848  0.82780465  0.59285205    -0.59600
O1543       O  0.53785747  0.79209882  0.60974128    -0.50500
C1544       C  0.54136163  0.75422528  0.51513683     0.71500
O1545       O  0.57205371  0.75119553  0.53933750    -0.45400
C1546       C  0.54209940  0.66580674  0.59342220     0.76200
O1547       O  0.62167269  0.75461702  0.61588680    -0.57200
O1548       O  0.52923766  0.70294329  0.59535150    -0.47300
O1549       O  0.60169741  0.74075968  0.65081814    -0.53700
C1550       C  0.54962416  0.83043205  0.60630777     0.86400
O1551       O  0.52304169  0.75601509  0.52891414    -0.55600
O1552       O  0.56640682  0.67130175  0.58881540    -0.58900
In1553     In  0.81516822  0.49964366  0.58941174     1.36900
C1554       C  0.87733521  0.99819798  0.64912642     0.78800
O1555       O  0.81816103  0.57779035  0.59285755    -0.59600
O1556       O  0.78785536  0.54208129  0.60973874    -0.50500
C1557       C  0.79136333  0.50422115  0.51513635     0.71500
O1558       O  0.82205525  0.00118449  0.53933717    -0.45400
C1559       C  0.79210229  0.91578932  0.59341843     0.76200
O1560       O  0.87167414  0.50460799  0.61588950    -0.57200
O1561       O  0.77924209  0.95292441  0.59535320    -0.47300
O1562       O  0.85169738  0.99073918  0.65081835    -0.53700
C1563       C  0.79962407  0.58041532  0.60630998     0.86400
O1564       O  0.77304341  0.50600912  0.52891381    -0.55600
O1565       O  0.81640714  0.92128682  0.58880726    -0.58900
C1566       C  0.53812786  0.54769711  0.85673956     0.87700
C1567       C  0.56609943  0.54550653  0.84896033    -0.52500
C1568       C  0.56230810  0.01008257  0.82566751     0.10700
C1569       C  0.53086813  0.97823813  0.81333733     0.21600
C1570       C  0.00676334  0.54950411  0.81727815    -0.53200
C1571       C  0.00067330  0.01142418  0.79477955     0.10800
C1572       C  0.53727736  0.00013878  0.87372236    -0.52800
C1573       C  0.53389824  0.96366536  0.85119971     0.11300
H1574       H  0.58594115  0.57143673  0.85866757     0.15900
H1575       H  0.52835754  0.94826172  0.79540001     0.01600
H1576       H  0.99380139  0.58195894  0.80701252     0.16200
H1577       H  0.53880400  0.99571420  0.90080357     0.15900
C1578       C  0.91096261  0.00099078  0.68523014     0.31300
C1579       C  0.96789243  0.00469246  0.75578078     0.31300
C1580       C  0.91237774  0.53984003  0.71048094    -0.04900
C1581       C  0.91917522  0.95731654  0.71079114    -0.05700
C1582       C  0.94315077  0.00925665  0.68500222    -0.05600
C1583       C  0.94030683  0.54083689  0.74670281    -0.04900
C1584       C  0.94801430  0.95879113  0.74686354    -0.06100
C1585       C  0.97238378  0.00844063  0.72124669    -0.05600
C1586       C  0.93288337  0.57221613  0.76620763    -0.31000
N1587       N  0.90451063  0.59486236  0.74163438     0.15500
C1588       C  0.89106867  0.57454844  0.70730485    -0.31000
H1589       H  0.86793117  0.58428632  0.68206996     0.17500
C1590       C  0.95034428  0.91589398  0.76393523    -0.30000
N1591       N  0.92391591  0.88909941  0.73898795     0.14200
C1592       C  0.90492217  0.91426514  0.70665773    -0.30000
C1593       C  0.99588850  0.98923434  0.71525222    -0.30300
N1594       N  0.98497664  0.98885955  0.67788856     0.14700
H1595       H  0.51804457  0.97174498  0.73624618     0.17400
C1596       C  0.95207666  0.99878979  0.65900716    -0.30300
H1597       H  0.93572721  0.99779460  0.62847829     0.17400
H1598       H  0.88200242  0.90275754  0.68194903     0.17400
H1599       H  0.94592970  0.57711478  0.79645980     0.17400
H1600       H  0.96941734  0.90527760  0.79218912     0.17400
C1601       C  0.77993181  0.79153341  0.63233830     0.87700
C1602       C  0.75185361  0.78356686  0.63976703    -0.52500
C1603       C  0.75665431  0.74630173  0.66321544     0.10700
C1604       C  0.78980262  0.71978693  0.67664902     0.21600
C1605       C  0.81094996  0.79544081  0.67174725    -0.53200
C1606       C  0.81838312  0.75692477  0.69462200     0.10800
C1607       C  0.78293918  0.74563616  0.61612868    -0.52800
C1608       C  0.78749283  0.70791049  0.63901512     0.11300
H1609       H  0.73092295  0.80694905  0.62926809     0.15900
H1610       H  0.79376880  0.68912034  0.69537672     0.01600
H1611       H  0.82368047  0.82847088  0.68137610     0.16200
H1612       H  0.78125810  0.74309070  0.58893856     0.15900
C1613       C  0.85163996  0.75249697  0.73305478     0.31300
C1614       C  0.90879324  0.74656943  0.80344654     0.31300
C1615       C  0.87997049  0.78741357  0.74091551    -0.04900
C1616       C  0.84831975  0.75938373  0.76774585    -0.05700
C1617       C  0.87024457  0.70554938  0.74279155    -0.05600
C1618       C  0.90815523  0.78554448  0.77713930    -0.04900
C1619       C  0.87689895  0.75438787  0.80365207    -0.05700
C1620       C  0.89929851  0.70330401  0.77867304    -0.05600
C1621       C  0.92896578  0.82216958  0.78033555    -0.31000
N1622       N  0.91479029  0.84470508  0.74632721     0.15500
C1623       C  0.88620817  0.82203010  0.72172239    -0.31000
H1624       H  0.87164590  0.83017673  0.69187239     0.17500
C1625       C  0.86665136  0.75253882  0.82949162    -0.30000
N1626       N  0.83313936  0.75813848  0.81000653     0.14200
C1627       C  0.82262975  0.76629604  0.77312510    -0.30000
C1628       C  0.91358396  0.66111675  0.78239874    -0.30300
N1629       N  0.89459314  0.63700570  0.74986468     0.14700
H1630       H  0.93702917  0.65004140  0.80650237     0.17400
C1631       C  0.86811915  0.66375772  0.72526809    -0.30300
H1632       H  0.84970304  0.65444022  0.69651995     0.17400
H1633       H  0.79926721  0.78129615  0.75256591     0.17400
H1634       H  0.95180921  0.83250205  0.80572320     0.17400
H1635       H  0.88203218  0.74651787  0.85979186     0.17400
In1636     In  0.00400197  0.75090014  0.89984387     1.36900
C1637       C  0.94219379  0.74479233  0.83981106     0.78800
O1638       O  0.99987772  0.82901886  0.89389397    -0.59600
O1639       O  0.03248756  0.79594922  0.88068364    -0.50500
C1640       C  0.52788470  0.75440154  0.97411140     0.71500
O1641       O  0.99711275  0.75235025  0.94991096    -0.45400
C1642       C  0.02647048  0.66850722  0.89655354     0.76200
O1643       O  0.94746915  0.75258445  0.87255750    -0.57200
O1644       O  0.53882878  0.70619919  0.89287836    -0.47300
O1645       O  0.96806666  0.73842006  0.83877912    -0.53700
C1646       C  0.01981463  0.83339680  0.88232365     0.86400
O1647       O  0.54626828  0.75554909  0.96034428    -0.55600
O1648       O  0.00329760  0.67276306  0.90305265    -0.58900
C1649       C  0.54017690  0.58789460  0.87926189    -0.12000
C1650       C  0.03632668  0.62402856  0.89078621    -0.13600
C1651       C  0.53107884  0.91615346  0.86154250    -0.12000
C1652       C  0.02694977  0.87780210  0.87114343    -0.13600
C1653       C  0.78129223  0.87058142  0.59868232    -0.12000
C1654       C  0.77684983  0.83334026  0.60959734    -0.13600
C1655       C  0.79330228  0.62388899  0.61791820    -0.12000
C1656       C  0.79001770  0.66142797  0.62815426    -0.13600
C1657       C  0.52684510  0.58335828  0.60960071    -0.12000
C1658       C  0.53128789  0.62060000  0.59868660    -0.13600
C1659       C  0.54001890  0.91144623  0.62815100    -0.12000
C1660       C  0.54330325  0.87390723  0.61791482    -0.13600
C1661       C  0.78632979  0.87404775  0.89077998    -0.12000
C1662       C  0.79017925  0.83790979  0.87925978    -0.13600
C1663       C  0.78107528  0.66616760  0.86154333    -0.12000
C1664       C  0.77694767  0.62781996  0.87114457    -0.13600
loop_ 
_geom_bond_atom_site_label_1 
_geom_bond_atom_site_label_2 
_geom_bond_distance 
_geom_bond_site_symmetry_2 
_ccdc_geom_bond_type 
In1           O3   2.249       .  S
In1           O4   2.255       .  S
In1          O12   2.245       .  S
In1           O8   2.290       .  S
In1         O422   2.253       .  S
In1         O425   2.238   1_545  S
In1         O426   2.217   1_545  S
In1         O429   2.241   1_545  S
C2           O10   1.259       .  A
C2          O424   1.264       .  A
C2           C62   1.507       .  S
O3           C11   1.259       .  A
O4           C11   1.259       .  A
C5           O12   1.259       .  A
C5          O422   1.263       .  A
C5          C309   1.466       .  S
O6         In417   2.253       .  S
O6          C421   1.263       .  A
C7            O9   1.260       .  A
C7           O13   1.261       .  A
C7          C205   1.431       .  S
O8          C418   1.264   1_545  A
O9         In417   2.238       .  S
O10        In417   2.217       .  S
C11         C208   1.437       .  S
O13        In417   2.241       .  S
C14          C15   1.513       .  S
C14          C20   1.529       .  S
C14          C18   1.527       .  S
C14         C206   1.465       .  S
C15          H22   1.086       .  S
C15          C16   1.356       .  D
C16          C17   1.570       .  S
C16         N170   1.431       .  S
C17          C21   1.542       .  S
C17          C19   1.551       .  S
C17          H23   1.109       .  S
C18          H24   1.075       .  S
C18          C19   1.373       .  D
C19          C27   1.557       .  S
C20          H25   1.086       .  S
C20          C21   1.364       .  D
C21         C207   1.443       .  S
C26          C28   1.517       .  S
C26          C30   1.535       .  S
C26          C29   1.539       .  S
C26          C85   1.509       .  S
C27          C31   1.560       .  S
C27          C33   1.547       .  S
C27          C32   1.534       .  S
C28          C36   1.383       .  A
C28          C31   1.385       .  A
C29          C40   1.363       .  A
C29          C32   1.399       .  A
C30          C44   1.380       .  A
C30          C33   1.410       .  A
C31          C34   1.383       .  A
C32          C38   1.382       .  A
C33          C41   1.381       .  A
C34          N35   1.354       .  A
C34          H47   1.077       .  S
N35          C36   1.353       .  A
N35          N77   1.413       .  S
C36          H37   1.081       .  S
C38          N39   1.363       .  A
C38          H48   1.079       .  S
N39          C40   1.358       .  A
N39          N70   1.412       .  S
C40          H46   1.080       .  S
C41          N42   1.348       .  A
C41          H43   1.074       .  S
N42         C147   1.444       .  S
N42          C44   1.357       .  A
C44          H45   1.082       .  S
C49          C50   1.517       .  S
C49          C53   1.523       .  S
C49         C471   1.530   1_545  S
C49         C201   1.468       .  S
C50          H57   1.086   1_455  S
C50         C467   1.367   1_545  D
C51          C52   1.566       .  S
C51         C466   1.367       .  D
C51         N970   1.444   1_455  S
C52          C56   1.543       .  S
C52          C54   1.559       .  S
C52          H58   1.110       .  S
C53          H59   1.076       .  S
C53         C470   1.364       .  D
C54          C61   1.549       .  S
C54         C469   1.364       .  D
C55         C465   1.530       .  S
C55          H60   1.087       .  S
C55          C56   1.365       .  D
C56         C203   1.441       .  S
C61          C65   1.549       .  S
C61          C64   1.535       .  S
C61         C479   1.548       .  S
C62          C68   1.528       .  S
C62          C67   1.528       .  S
C62         C482   1.531       .  S
C63         C477   1.548       .  S
C63          C71   1.377       .  A
C63          C66   1.390       .  A
C64          C75   1.358       .  A
C64          C67   1.397       .  A
C65          C79   1.386       .  A
C65          C68   1.400       .  A
C66         C478   1.531   1_545  S
C66          C69   1.382       .  A
C67          C73   1.380       .  A
C68          C76   1.362       .  A
C69          N70   1.355       .  A
C69          H82   1.081       .  S
N70          C71   1.354       .  A
C71          H72   1.076       .  S
C73          N74   1.360       .  A
C73          H83   1.082       .  S
N74         C112   1.431       .  S
N74          C75   1.349       .  A
C75          H81   1.072       .  S
C76          N77   1.357       .  A
C76          H78   1.081       .  S
N77          C79   1.365       .  A
C79          H80   1.078       .  S
In84         O86   2.244       .  S
In84         O87   2.251       .  S
In84         O95   2.245       .  S
In84         O89   2.251       .  S
In84         O91   2.294       .  S
In84         O92   2.246       .  S
In84         O93   2.213       .  S
In84         O96   2.248       .  S
C85          O91   1.263       .  A
C85          O93   1.259       .  A
O86          C94   1.259       .  A
O87          C94   1.259       .  A
C88          O95   1.259       .  A
C88          O89   1.263       .  A
C88         C392   1.466   1_554  S
C90          O92   1.259       .  A
C90          O96   1.261       .  A
C90         C202   1.436       .  S
C94         C204   1.435       .  S
In97         O99   2.244   1_565  S
In97        O100   2.251   1_565  S
In97        O108   2.245   1_565  S
In97        O104   2.294   1_565  S
In97        O518   2.251   1_565  S
In97        O521   2.246       .  S
In97        O522   2.213       .  S
In97        O525   2.248       .  S
C98         O106   1.259       .  A
C98         O520   1.263       .  A
C98         C122   1.509       .  S
O99         C107   1.259       .  A
O100        C107   1.259       .  A
C101        O108   1.259       .  A
C101        O518   1.263       .  A
C101        C213   1.466   1_554  S
O102       In513   2.251       .  S
O102        C517   1.263       .  A
C103        O105   1.259       .  A
C103        O109   1.261       .  A
C103        C197   1.436       .  S
O104        C514   1.263   1_545  A
O105       In513   2.246       .  S
O106       In513   2.213       .  S
C107        C199   1.435       .  S
O109       In513   2.248       .  S
C110        C111   1.513       .  S
C110        C532   1.529       .  S
C110        C946   1.527       .  S
C110        C193   1.465       .  S
C111        H118   1.086       .  S
C111        C528   1.356       .  D
C112        C113   1.570       .  S
C112        C527   1.356       .  D
C113        C117   1.542       .  S
C113        C947   1.551       .  S
C113        H119   1.109       .  S
C114        C942   1.527       .  S
C114        H120   1.075       .  S
C114        C531   1.373       .  D
C115        C123   1.557       .  S
C115        C945   1.551       .  S
C115        C530   1.373       .  D
C116        C526   1.529       .  S
C116        H121   1.086       .  S
C116        C117   1.364       .  D
C117        C195   1.443       .  S
C122        C126   1.535       .  S
C122        C125   1.539       .  S
C122        C540   1.517       .  S
C123        C129   1.547       .  S
C123        C128   1.534       .  S
C123        C543   1.560       .  S
C124        C538   1.517       .  S
C124        C132   1.383       .  A
C124        C127   1.385       .  A
C125        C136   1.363       .  A
C125        C128   1.399       .  A
C126        C140   1.380       .  A
C126        C129   1.410       .  A
C127        C539   1.560       .  S
C127        C130   1.383       .  A
C128        C134   1.382       .  A
C129        C137   1.381       .  A
C130        N131   1.354       .  A
C130        H143   1.077       .  S
N131        C132   1.353       .  A
N131        N173   1.413       .  S
C132        H133   1.081       .  S
C134        N135   1.363       .  A
C134        H144   1.079       .  S
N135        C136   1.358       .  A
N135        N166   1.412       .  S
C136        H142   1.080       .  S
C137        N138   1.348       .  A
C137        H971   1.074       .  S
N138        C883   1.444       .  S
N138        C140   1.357       .  A
H139        C969   1.074   1_455  S
C140        H141   1.082       .  S
C145        C146   1.517       .  S
C145        C151   1.530       .  S
C145        C149   1.523       .  S
C145        C198   1.468       .  S
C146        H153   1.086       .  S
C146        C147   1.367       .  D
C147        C148   1.566       .  S
C148        C152   1.543       .  S
C148        C150   1.559       .  S
C148        H154   1.110       .  S
C149        H155   1.076       .  S
C149        C150   1.364       .  D
C150        C157   1.549       .  S
C151        H156   1.087       .  S
C151        C152   1.365       .  D
C152        C200   1.441       .  S
C157        C159   1.548       .  S
C157        C161   1.549       .  S
C157        C160   1.535       .  S
C158        C162   1.531       .  S
C158        C164   1.528       .  S
C158        C163   1.528       .  S
C158        C181   1.507       .  S
C159        C167   1.377       .  A
C159        C162   1.390       .  A
C160        C171   1.358       .  A
C160        C163   1.397       .  A
C161        C175   1.386       .  A
C161        C164   1.400       .  A
C162        C165   1.382       .  A
C163        C169   1.380       .  A
C164        C172   1.362       .  A
C165        N166   1.355       .  A
C165        H178   1.081       .  S
N166        C167   1.354       .  A
C167        H168   1.076       .  S
C169        N170   1.360       .  A
C169        H179   1.082       .  S
N170        C171   1.349       .  A
C171        H177   1.072       .  S
C172        N173   1.357       .  A
C172        H174   1.081       .  S
N173        C175   1.365       .  A
C175        H176   1.078       .  S
In180       O182   2.249       .  S
In180       O183   2.255       .  S
In180       O185   2.253       .  S
In180       O187   2.290       .  S
In180       O189   2.217       .  S
In180       O192   2.241       .  S
In180      O1023   2.245       .  S
In180      O1020   2.238       .  S
C181        O187   1.264       .  A
C181        O189   1.259       .  A
O182        C190   1.259       .  A
O183        C190   1.259       .  A
C184        O191   1.259       .  A
C184       O1017   1.263   1_455  A
C184        C296   1.466       .  S
O185       C1016   1.263       .  A
C186        O192   1.261       .  A
C186       O1020   1.260       .  A
C186        C194   1.431       .  S
O188      In1012   2.238       .  S
O188       C1018   1.260       .  A
C190        C196   1.437       .  S
O191      In1012   2.245       .  S
C193       C1026   1.204       .  T
C194       C1025   1.204       .  T
C195       C1028   1.207       .  T
C196       C1027   1.207       .  T
C197        C198   1.206       .  T
C199        C200   1.205       .  T
C201        C202   1.206       .  T
C203        C204   1.205       .  T
C205        C206   1.204       .  T
C207        C208   1.207       .  T
In209       O211   2.249       .  S
In209       O212   2.255       .  S
In209       O220   2.245       .  S
In209       O630   2.253       .  S
In209       O216   2.290       .  S
In209       O633   2.238   1_545  S
In209       O634   2.217   1_545  S
In209       O637   2.241   1_545  S
C210        O632   1.264       .  A
C210        O218   1.259       .  A
C210        C270   1.507       .  S
O211        C219   1.259       .  A
O212        C219   1.259       .  A
C213        O220   1.259       .  A
C213        O630   1.263       .  A
O214       In625   2.253       .  S
O214        C629   1.263       .  A
C215        O217   1.260       .  A
C215        O221   1.261       .  A
C215        C413   1.431       .  S
O216        C626   1.264   1_545  A
O217       In625   2.238       .  S
O218       In625   2.217       .  S
C219        C416   1.437       .  S
O221       In625   2.241       .  S
C222        C223   1.513       .  S
C222        C228   1.529       .  S
C222        C226   1.527       .  S
C222        C414   1.465       .  S
C223        H230   1.086       .  S
C223        C224   1.356       .  D
C224        C225   1.570       .  S
C224        N378   1.431       .  S
C225        C229   1.542       .  S
C225        C227   1.551       .  S
C225        H231   1.109       .  S
C226        H232   1.075       .  S
C226        C227   1.373       .  D
C227        C235   1.557       .  S
C228        H233   1.086       .  S
C228        C229   1.364       .  D
C229        C415   1.443       .  S
C234        C236   1.517       .  S
C234        C238   1.535       .  S
C234        C237   1.539       .  S
C234        C293   1.509       .  S
C235        C239   1.560       .  S
C235        C241   1.547       .  S
C235        C240   1.534       .  S
C236        C244   1.383       .  A
C236        C239   1.385       .  A
C237        C248   1.363       .  A
C237        C240   1.399       .  A
C238        C252   1.380       .  A
C238        C241   1.410       .  A
C239        C242   1.383       .  A
C240        C246   1.382       .  A
C241        C249   1.381       .  A
C242        N243   1.354       .  A
C242        H255   1.077       .  S
N243        C244   1.353       .  A
N243        N285   1.413       .  S
C244        H245   1.081       .  S
C246        N247   1.363       .  A
C246        H256   1.079       .  S
N247        C248   1.358       .  A
N247        N278   1.412       .  S
C248        H254   1.080       .  S
C249        N250   1.348       .  A
C249        H251   1.074       .  S
N250        C355   1.444       .  S
N250        C252   1.357       .  A
C252        H253   1.082       .  S
C257        C258   1.517       .  S
C257        C679   1.530   1_545  S
C257        C261   1.523       .  S
C257        C409   1.468       .  S
C258        H265   1.086   1_455  S
C258        C675   1.367   1_545  D
C259        C260   1.566       .  S
C259        C674   1.367       .  D
C259       N1178   1.444   1_455  S
C260        C264   1.543       .  S
C260        C262   1.559       .  S
C260        H266   1.110       .  S
C261        H267   1.076       .  S
C261        C678   1.364       .  D
C262        C269   1.549       .  S
C262        C677   1.364       .  D
C263        C673   1.530       .  S
C263        H268   1.087       .  S
C263        C264   1.365       .  D
C264        C411   1.441       .  S
C269        C687   1.548       .  S
C269        C273   1.549       .  S
C269        C272   1.535       .  S
C270        C690   1.531       .  S
C270        C276   1.528       .  S
C270        C275   1.528       .  S
C271        C685   1.548       .  S
C271        C279   1.377       .  A
C271        C274   1.390       .  A
C272        C283   1.358       .  A
C272        C275   1.397       .  A
C273        C287   1.386       .  A
C273        C276   1.400       .  A
C274        C686   1.531   1_545  S
C274        C277   1.382       .  A
C275        C281   1.380       .  A
C276        C284   1.362       .  A
C277        N278   1.355       .  A
C277        H290   1.081       .  S
N278        C279   1.354       .  A
C279        H280   1.076       .  S
C281        N282   1.360       .  A
C281        H291   1.082       .  S
N282        C320   1.431       .  S
N282        C283   1.349       .  A
C283        H289   1.072       .  S
C284        N285   1.357       .  A
C284        H286   1.081       .  S
N285        C287   1.365       .  A
C287        H288   1.078       .  S
In292       O294   2.244       .  S
In292       O295   2.251       .  S
In292       O303   2.245       .  S
In292       O297   2.251       .  S
In292       O299   2.294       .  S
In292       O300   2.246       .  S
In292       O301   2.213       .  S
In292       O304   2.248       .  S
C293        O299   1.263       .  A
C293        O301   1.259       .  A
O294        C302   1.259       .  A
O295        C302   1.259       .  A
C296        O303   1.259       .  A
C296        O297   1.263       .  A
C298        O300   1.259       .  A
C298        O304   1.261       .  A
C298        C410   1.436       .  S
C302        C412   1.435       .  S
In305       O307   2.244   1_565  S
In305       O308   2.251   1_565  S
In305       O316   2.245   1_565  S
In305       O726   2.251   1_565  S
In305       O312   2.294   1_565  S
In305       O729   2.246       .  S
In305       O730   2.213       .  S
In305       O733   2.248       .  S
C306        O728   1.263       .  A
C306        O314   1.259       .  A
C306        C330   1.509       .  S
O307        C315   1.259       .  A
O308        C315   1.259       .  A
C309        O316   1.259       .  A
C309        O726   1.263       .  A
O310       In721   2.251       .  S
O310        C725   1.263       .  A
C311        O313   1.259       .  A
C311        O317   1.261       .  A
C311        C405   1.436       .  S
O312        C722   1.263   1_545  A
O313       In721   2.246       .  S
O314       In721   2.213       .  S
C315        C407   1.435       .  S
O317       In721   2.248       .  S
C318        C319   1.513       .  S
C318        C740   1.529       .  S
C318       C1154   1.527       .  S
C318        C401   1.465       .  S
C319        H326   1.086       .  S
C319        C736   1.356       .  D
C320        C321   1.570       .  S
C320        C735   1.356       .  D
C321        C325   1.542       .  S
C321       C1155   1.551       .  S
C321        H327   1.109       .  S
C322       C1150   1.527       .  S
C322        H328   1.075       .  S
C322        C739   1.373       .  D
C323       C1153   1.551       .  S
C323        C331   1.557       .  S
C323        C738   1.373       .  D
C324        C734   1.529       .  S
C324        H329   1.086       .  S
C324        C325   1.364       .  D
C325        C403   1.443       .  S
C330        C748   1.517       .  S
C330        C334   1.535       .  S
C330        C333   1.539       .  S
C331        C751   1.560       .  S
C331        C337   1.547       .  S
C331        C336   1.534       .  S
C332        C746   1.517       .  S
C332        C340   1.383       .  A
C332        C335   1.385       .  A
C333        C344   1.363       .  A
C333        C336   1.399       .  A
C334        C348   1.380       .  A
C334        C337   1.410       .  A
C335        C747   1.560       .  S
C335        C338   1.383       .  A
C336        C342   1.382       .  A
C337        C345   1.381       .  A
C338        N339   1.354       .  A
C338        H351   1.077       .  S
N339        C340   1.353       .  A
N339        N381   1.413       .  S
C340        H341   1.081       .  S
C342        N343   1.363       .  A
C342        H352   1.079       .  S
N343        C344   1.358       .  A
N343        N374   1.412       .  S
C344        H350   1.080       .  S
C345        N346   1.348       .  A
C345       H1179   1.074       .  S
N346       C1091   1.444       .  S
N346        C348   1.357       .  A
H347       C1177   1.074   1_455  S
C348        H349   1.082       .  S
C353        C354   1.517       .  S
C353        C359   1.530       .  S
C353        C357   1.523       .  S
C353        C406   1.468       .  S
C354        H361   1.086       .  S
C354        C355   1.367       .  D
C355        C356   1.566       .  S
C356        C360   1.543       .  S
C356        C358   1.559       .  S
C356        H362   1.110       .  S
C357        H363   1.076       .  S
C357        C358   1.364       .  D
C358        C365   1.549       .  S
C359        H364   1.087       .  S
C359        C360   1.365       .  D
C360        C408   1.441       .  S
C365        C367   1.548       .  S
C365        C369   1.549       .  S
C365        C368   1.535       .  S
C366        C370   1.531       .  S
C366        C372   1.528       .  S
C366        C371   1.528       .  S
C366        C389   1.507       .  S
C367        C375   1.377       .  A
C367        C370   1.390       .  A
C368        C379   1.358       .  A
C368        C371   1.397       .  A
C369        C383   1.386       .  A
C369        C372   1.400       .  A
C370        C373   1.382       .  A
C371        C377   1.380       .  A
C372        C380   1.362       .  A
C373        N374   1.355       .  A
C373        H386   1.081       .  S
N374        C375   1.354       .  A
C375        H376   1.076       .  S
C377        N378   1.360       .  A
C377        H387   1.082       .  S
N378        C379   1.349       .  A
C379        H385   1.072       .  S
C380        N381   1.357       .  A
C380        H382   1.081       .  S
N381        C383   1.365       .  A
C383        H384   1.078       .  S
In388       O390   2.249       .  S
In388       O391   2.255       .  S
In388      O1231   2.245       .  S
In388       O393   2.253       .  S
In388       O395   2.290       .  S
In388      O1228   2.238       .  S
In388       O397   2.217       .  S
In388       O400   2.241       .  S
C389        O395   1.264       .  A
C389        O397   1.259       .  A
O390        C398   1.259       .  A
O391        C398   1.259       .  A
C392        O399   1.259       .  A
C392       O1225   1.263   1_455  A
O393       C1224   1.263       .  A
C394       O1228   1.260       .  A
C394        O400   1.261       .  A
C394        C402   1.431       .  S
O396      In1220   2.238       .  S
O396       C1226   1.260       .  A
C398        C404   1.437       .  S
O399      In1220   2.245       .  S
C401       C1234   1.204       .  T
C402       C1233   1.204       .  T
C403       C1236   1.207       .  T
C404       C1235   1.207       .  T
C405        C406   1.206       .  T
C407        C408   1.205       .  T
C409        C410   1.206       .  T
C411        C412   1.205       .  T
C413        C414   1.204       .  T
C415        C416   1.207       .  T
In417       O419   2.249       .  S
In417       O420   2.255       .  S
In417       O428   2.245       .  S
In417       O424   2.290       .  S
C418        O426   1.259       .  A
C418        C478   1.507       .  S
O419        C427   1.259       .  A
O420        C427   1.259       .  A
C421        O428   1.259       .  A
C421        C725   1.466       .  S
C423        O425   1.260       .  A
C423        O429   1.261       .  A
C423        C621   1.431       .  S
C427        C624   1.437       .  S
C430        C431   1.513       .  S
C430        C436   1.529       .  S
C430        C434   1.527       .  S
C430        C622   1.465       .  S
C431        H438   1.086       .  S
C431        C432   1.356       .  D
C432        C433   1.570       .  S
C432        N586   1.431       .  S
C433        C437   1.542       .  S
C433        C435   1.551       .  S
C433        H439   1.109       .  S
C434        H440   1.075       .  S
C434        C435   1.373       .  D
C435        C443   1.557       .  S
C436        H441   1.086       .  S
C436        C437   1.364       .  D
C437        C623   1.443       .  S
C442        C444   1.517       .  S
C442        C446   1.535       .  S
C442        C445   1.539       .  S
C442        C501   1.509       .  S
C443        C447   1.560       .  S
C443        C449   1.547       .  S
C443        C448   1.534       .  S
C444        C452   1.383       .  A
C444        C447   1.385       .  A
C445        C456   1.363       .  A
C445        C448   1.399       .  A
C446        C460   1.380       .  A
C446        C449   1.410       .  A
C447        C450   1.383       .  A
C448        C454   1.382       .  A
C449        C457   1.381       .  A
C450        N451   1.354       .  A
C450        H463   1.077       .  S
N451        C452   1.353       .  A
N451        N493   1.413       .  S
C452        H453   1.081       .  S
C454        N455   1.363       .  A
C454        H464   1.079       .  S
N455        C456   1.358       .  A
N455        N486   1.412       .  S
C456        H462   1.080       .  S
C457        N458   1.348       .  A
C457        H459   1.074       .  S
N458        C563   1.444       .  S
N458        C460   1.357       .  A
C460        H461   1.082       .  S
C465        C466   1.517       .  S
C465        C469   1.523       .  S
C465        C617   1.468       .  S
C466        H473   1.086   1_455  S
C467        C468   1.566       .  S
C467       N1386   1.444   1_455  S
C468        C472   1.543       .  S
C468        C470   1.559   1_565  S
C468        H474   1.110       .  S
C469        H475   1.076       .  S
C470        C477   1.549       .  S
C471        H476   1.087       .  S
C471        C472   1.365       .  D
C472        C619   1.441       .  S
C477        C481   1.549   1_545  S
C477        C480   1.535       .  S
C478        C484   1.528       .  S
C478        C483   1.528   1_565  S
C479        C487   1.377       .  A
C479        C482   1.390       .  A
C480        C491   1.358       .  A
C480        C483   1.397       .  A
C481        C495   1.386       .  A
C481        C484   1.400       .  A
C482        C485   1.382       .  A
C483        C489   1.380       .  A
C484        C492   1.362       .  A
C485        N486   1.355       .  A
C485        H498   1.081       .  S
N486        C487   1.354       .  A
C487        H488   1.076       .  S
C489        N490   1.360       .  A
C489        H499   1.082   1_545  S
N490        C528   1.431       .  S
N490        C491   1.349       .  A
C491        H497   1.072       .  S
C492        N493   1.357       .  A
C492        H494   1.081       .  S
N493        C495   1.365       .  A
C495        H496   1.078       .  S
In500       O502   2.244       .  S
In500       O503   2.251       .  S
In500       O511   2.245       .  S
In500       O505   2.251       .  S
In500       O507   2.294       .  S
In500       O508   2.246       .  S
In500       O509   2.213       .  S
In500       O512   2.248       .  S
C501        O507   1.263       .  A
C501        O509   1.259       .  A
O502        C510   1.259       .  A
O503        C510   1.259       .  A
C504        O511   1.259       .  A
C504        O505   1.263       .  A
C504        C808   1.466   1_554  S
C506        O508   1.259       .  A
C506        O512   1.261       .  A
C506        C618   1.436       .  S
C510        C620   1.435       .  S
In513       O515   2.244       .  S
In513       O516   2.251       .  S
In513       O524   2.245       .  S
In513       O520   2.294       .  S
C514        O522   1.259       .  A
C514        C538   1.509   1_565  S
O515        C523   1.259       .  A
O516        C523   1.259       .  A
C517        O524   1.259       .  A
C517        C629   1.466   1_554  S
C519        O521   1.259       .  A
C519        O525   1.261       .  A
C519        C613   1.436       .  S
C523        C615   1.435       .  S
C526        C527   1.513       .  S
C526       C1362   1.527       .  S
C526        C609   1.465       .  S
C527        H534   1.086       .  S
C528        C529   1.570   1_545  S
C529        C533   1.542       .  S
C529       C1363   1.551   1_565  S
C529        H535   1.109       .  S
C530       C1358   1.527       .  S
C530        H536   1.075       .  S
C531       C1361   1.551   1_545  S
C531        C539   1.557       .  S
C532        H537   1.086   1_545  S
C532        C533   1.364   1_545  D
C533        C611   1.443       .  S
C538        C542   1.535       .  S
C538        C541   1.539   1_545  S
C539        C545   1.547       .  S
C539        C544   1.534   1_545  S
C540        C548   1.383       .  A
C540        C543   1.385       .  A
C541        C552   1.363       .  A
C541        C544   1.399       .  A
C542        C556   1.380   1_545  A
C542        C545   1.410       .  A
C543        C546   1.383       .  A
C544        C550   1.382       .  A
C545        C553   1.381   1_545  A
C546        N547   1.354       .  A
C546        H559   1.077       .  S
N547        C548   1.353       .  A
N547        N589   1.413       .  S
C548        H549   1.081       .  S
C550        N551   1.363       .  A
C550        H560   1.079       .  S
N551        C552   1.358       .  A
N551        N582   1.412       .  S
C552        H558   1.080       .  S
C553        N554   1.348       .  A
C553       H1387   1.074       .  S
N554       C1299   1.444       .  S
N554        C556   1.357       .  A
H555       C1385   1.074   1_455  S
C556        H557   1.082       .  S
C561        C562   1.517       .  S
C561        C567   1.530       .  S
C561        C565   1.523       .  S
C561        C614   1.468       .  S
C562        H569   1.086       .  S
C562        C563   1.367       .  D
C563        C564   1.566       .  S
C564        C568   1.543       .  S
C564        C566   1.559       .  S
C564        H570   1.110       .  S
C565        H571   1.076       .  S
C565        C566   1.364       .  D
C566        C573   1.549       .  S
C567        H572   1.087       .  S
C567        C568   1.365       .  D
C568        C616   1.441       .  S
C573        C575   1.548       .  S
C573        C577   1.549       .  S
C573        C576   1.535       .  S
C574        C578   1.531       .  S
C574        C580   1.528       .  S
C574        C579   1.528       .  S
C574        C597   1.507       .  S
C575        C583   1.377       .  A
C575        C578   1.390       .  A
C576        C587   1.358       .  A
C576        C579   1.397       .  A
C577        C591   1.386       .  A
C577        C580   1.400       .  A
C578        C581   1.382       .  A
C579        C585   1.380       .  A
C580        C588   1.362       .  A
C581        N582   1.355       .  A
C581        H594   1.081       .  S
N582        C583   1.354       .  A
C583        H584   1.076       .  S
C585        N586   1.360       .  A
C585        H595   1.082       .  S
N586        C587   1.349       .  A
C587        H593   1.072       .  S
C588        N589   1.357       .  A
C588        H590   1.081       .  S
N589        C591   1.365       .  A
C591        H592   1.078       .  S
In596       O598   2.249       .  S
In596       O599   2.255       .  S
In596      O1439   2.245       .  S
In596       O601   2.253       .  S
In596       O603   2.290       .  S
In596      O1436   2.238       .  S
In596       O605   2.217       .  S
In596       O608   2.241       .  S
C597        O603   1.264       .  A
C597        O605   1.259       .  A
O598        C606   1.259       .  A
O599        C606   1.259       .  A
C600        O607   1.259       .  A
C600       O1433   1.263   1_455  A
C600        C712   1.466       .  S
O601       C1432   1.263       .  A
C602       O1436   1.260       .  A
C602        O608   1.261       .  A
C602        C610   1.431       .  S
O604      In1428   2.238       .  S
O604       C1434   1.260       .  A
C606        C612   1.437       .  S
O607      In1428   2.245       .  S
C609       C1442   1.204       .  T
C610       C1441   1.204       .  T
C611       C1444   1.207       .  T
C612       C1443   1.207       .  T
C613        C614   1.206       .  T
C615        C616   1.205       .  T
C617        C618   1.206       .  T
C619        C620   1.205       .  T
C621        C622   1.204       .  T
C623        C624   1.207       .  T
In625       O627   2.249       .  S
In625       O628   2.255       .  S
In625       O636   2.245       .  S
In625       O632   2.290       .  S
C626        O634   1.259       .  A
C626        C686   1.507       .  S
O627        C635   1.259       .  A
O628        C635   1.259       .  A
C629        O636   1.259       .  A
C631        O633   1.260       .  A
C631        O637   1.261       .  A
C631        C829   1.431       .  S
C635        C832   1.437       .  S
C638        C639   1.513       .  S
C638        C644   1.529       .  S
C638        C642   1.527       .  S
C638        C830   1.465       .  S
C639        H646   1.086       .  S
C639        C640   1.356       .  D
C640        C641   1.570       .  S
C640        N794   1.431       .  S
C641        C645   1.542       .  S
C641        C643   1.551       .  S
C641        H647   1.109       .  S
C642        H648   1.075       .  S
C642        C643   1.373       .  D
C643        C651   1.557       .  S
C644        H649   1.086       .  S
C644        C645   1.364       .  D
C645        C831   1.443       .  S
C650        C652   1.517       .  S
C650        C654   1.535       .  S
C650        C653   1.539       .  S
C650        C709   1.509       .  S
C651        C655   1.560       .  S
C651        C657   1.547       .  S
C651        C656   1.534       .  S
C652        C660   1.383       .  A
C652        C655   1.385       .  A
C653        C664   1.363       .  A
C653        C656   1.399       .  A
C654        C668   1.380       .  A
C654        C657   1.410       .  A
C655        C658   1.383       .  A
C656        C662   1.382       .  A
C657        C665   1.381       .  A
C658        N659   1.354       .  A
C658        H671   1.077       .  S
N659        C660   1.353       .  A
N659        N701   1.413       .  S
C660        H661   1.081       .  S
C662        N663   1.363       .  A
C662        H672   1.079       .  S
N663        C664   1.358       .  A
N663        N694   1.412       .  S
C664        H670   1.080       .  S
C665        N666   1.348       .  A
C665        H667   1.074       .  S
N666        C771   1.444       .  S
N666        C668   1.357       .  A
C668        H669   1.082       .  S
C673        C674   1.517       .  S
C673        C677   1.523       .  S
C673        C825   1.468       .  S
C674        H681   1.086   1_455  S
C675        C676   1.566       .  S
C675       N1594   1.444   1_455  S
C676        C680   1.543       .  S
C676        C678   1.559   1_565  S
C676        H682   1.110       .  S
C677        H683   1.076       .  S
C678        C685   1.549       .  S
C679        H684   1.087       .  S
C679        C680   1.365       .  D
C680        C827   1.441       .  S
C685        C689   1.549   1_545  S
C685        C688   1.535       .  S
C686        C692   1.528       .  S
C686        C691   1.528   1_565  S
C687        C695   1.377       .  A
C687        C690   1.390       .  A
C688        C699   1.358       .  A
C688        C691   1.397       .  A
C689        C703   1.386       .  A
C689        C692   1.400       .  A
C690        C693   1.382       .  A
C691        C697   1.380       .  A
C692        C700   1.362       .  A
C693        N694   1.355       .  A
C693        H706   1.081       .  S
N694        C695   1.354       .  A
C695        H696   1.076       .  S
C697        N698   1.360       .  A
C697        H707   1.082   1_545  S
N698        C736   1.431       .  S
N698        C699   1.349       .  A
C699        H705   1.072       .  S
C700        N701   1.357       .  A
C700        H702   1.081       .  S
N701        C703   1.365       .  A
C703        H704   1.078       .  S
In708       O710   2.244       .  S
In708       O711   2.251       .  S
In708       O719   2.245       .  S
In708       O713   2.251       .  S
In708       O715   2.294       .  S
In708       O716   2.246       .  S
In708       O717   2.213       .  S
In708       O720   2.248       .  S
C709        O715   1.263       .  A
C709        O717   1.259       .  A
O710        C718   1.259       .  A
O711        C718   1.259       .  A
C712        O719   1.259       .  A
C712        O713   1.263       .  A
C714        O716   1.259       .  A
C714        O720   1.261       .  A
C714        C826   1.436       .  S
C718        C828   1.435       .  S
In721       O723   2.244       .  S
In721       O724   2.251       .  S
In721       O732   2.245       .  S
In721       O728   2.294       .  S
C722        O730   1.259       .  A
C722        C746   1.509   1_565  S
O723        C731   1.259       .  A
O724        C731   1.259       .  A
C725        O732   1.259       .  A
C727        O729   1.259       .  A
C727        O733   1.261       .  A
C727        C821   1.436       .  S
C731        C823   1.435       .  S
C734        C735   1.513       .  S
C734       C1570   1.527       .  S
C734        C817   1.465       .  S
C735        H742   1.086       .  S
C736        C737   1.570   1_545  S
C737        C741   1.542       .  S
C737       C1571   1.551   1_565  S
C737        H743   1.109       .  S
C738       C1566   1.527       .  S
C738        H744   1.075       .  S
C739       C1569   1.551   1_545  S
C739        C747   1.557       .  S
C740        H745   1.086   1_545  S
C740        C741   1.364   1_545  D
C741        C819   1.443       .  S
C746        C750   1.535       .  S
C746        C749   1.539   1_545  S
C747        C753   1.547       .  S
C747        C752   1.534   1_545  S
C748        C756   1.383       .  A
C748        C751   1.385       .  A
C749        C760   1.363       .  A
C749        C752   1.399       .  A
C750        C764   1.380   1_545  A
C750        C753   1.410       .  A
C751        C754   1.383       .  A
C752        C758   1.382       .  A
C753        C761   1.381   1_545  A
C754        N755   1.354       .  A
C754        H767   1.077       .  S
N755        C756   1.353       .  A
N755        N797   1.413       .  S
C756        H757   1.081       .  S
C758        N759   1.363       .  A
C758        H768   1.079       .  S
N759        C760   1.358       .  A
N759        N790   1.412       .  S
C760        H766   1.080       .  S
C761        N762   1.348       .  A
C761       H1595   1.074       .  S
N762       C1507   1.444       .  S
N762        C764   1.357       .  A
H763       C1593   1.074   1_455  S
C764        H765   1.082       .  S
C769        C770   1.517       .  S
C769        C775   1.530       .  S
C769        C773   1.523       .  S
C769        C822   1.468       .  S
C770        H777   1.086       .  S
C770        C771   1.367       .  D
C771        C772   1.566       .  S
C772        C776   1.543       .  S
C772        C774   1.559       .  S
C772        H778   1.110       .  S
C773        H779   1.076       .  S
C773        C774   1.364       .  D
C774        C781   1.549       .  S
C775        H780   1.087       .  S
C775        C776   1.365       .  D
C776        C824   1.441       .  S
C781        C783   1.548       .  S
C781        C785   1.549       .  S
C781        C784   1.535       .  S
C782        C786   1.531       .  S
C782        C788   1.528       .  S
C782        C787   1.528       .  S
C782        C805   1.507       .  S
C783        C791   1.377       .  A
C783        C786   1.390       .  A
C784        C795   1.358       .  A
C784        C787   1.397       .  A
C785        C799   1.386       .  A
C785        C788   1.400       .  A
C786        C789   1.382       .  A
C787        C793   1.380       .  A
C788        C796   1.362       .  A
C789        N790   1.355       .  A
C789        H802   1.081       .  S
N790        C791   1.354       .  A
C791        H792   1.076       .  S
C793        N794   1.360       .  A
C793        H803   1.082       .  S
N794        C795   1.349       .  A
C795        H801   1.072       .  S
C796        N797   1.357       .  A
C796        H798   1.081       .  S
N797        C799   1.365       .  A
C799        H800   1.078       .  S
In804       O806   2.249       .  S
In804       O807   2.255       .  S
In804      O1647   2.245       .  S
In804       O809   2.253       .  S
In804       O811   2.290       .  S
In804      O1644   2.238       .  S
In804       O813   2.217       .  S
In804       O816   2.241       .  S
C805        O811   1.264       .  A
C805        O813   1.259       .  A
O806        C814   1.259       .  A
O807        C814   1.259       .  A
C808        O815   1.259       .  A
C808       O1641   1.263   1_455  A
O809       C1640   1.263       .  A
C810       O1644   1.260       .  A
C810        O816   1.261       .  A
C810        C818   1.431       .  S
O812      In1636   2.238       .  S
O812       C1642   1.260       .  A
C814        C820   1.437       .  S
O815      In1636   2.245       .  S
C817       C1650   1.204       .  T
C818       C1649   1.204       .  T
C819       C1652   1.207       .  T
C820       C1651   1.207       .  T
C821        C822   1.206       .  T
C823        C824   1.205       .  T
C825        C826   1.206       .  T
C827        C828   1.205       .  T
C829        C830   1.204       .  T
C831        C832   1.207       .  T
In833       O835   2.249       .  S
In833       O836   2.255       .  S
In833       O844   2.245       .  S
In833      O1254   2.253       .  S
In833       O840   2.290       .  S
In833      O1257   2.238   1_545  S
In833      O1258   2.217   1_545  S
In833      O1261   2.241   1_545  S
C834       O1256   1.264       .  A
C834        O842   1.259       .  A
C834        C894   1.507       .  S
O835        C843   1.259       .  A
O836        C843   1.259       .  A
C837        O844   1.259       .  A
C837       O1254   1.263       .  A
C837       C1141   1.466       .  S
O838      In1249   2.253       .  S
O838       C1253   1.263       .  A
C839        O841   1.260       .  A
C839        O845   1.261       .  A
C839       C1037   1.431       .  S
O840       C1250   1.264   1_545  A
O841      In1249   2.238       .  S
O842      In1249   2.217       .  S
C843       C1040   1.437       .  S
O845      In1249   2.241       .  S
C846        C847   1.513       .  S
C846        C852   1.529       .  S
C846        C850   1.527       .  S
C846       C1038   1.465       .  S
C847        H854   1.086       .  S
C847        C848   1.356       .  D
C848        C849   1.570       .  S
C848       N1002   1.431       .  S
C849        C853   1.542       .  S
C849        C851   1.551       .  S
C849        H855   1.109       .  S
C850        H856   1.075       .  S
C850        C851   1.373       .  D
C851        C859   1.557       .  S
C852        H857   1.086       .  S
C852        C853   1.364       .  D
C853       C1039   1.443       .  S
C858        C860   1.517       .  S
C858        C862   1.535       .  S
C858        C861   1.539       .  S
C858        C917   1.509       .  S
C859        C863   1.560       .  S
C859        C865   1.547       .  S
C859        C864   1.534       .  S
C860        C868   1.383       .  A
C860        C863   1.385       .  A
C861        C872   1.363       .  A
C861        C864   1.399       .  A
C862        C876   1.380       .  A
C862        C865   1.410       .  A
C863        C866   1.383       .  A
C864        C870   1.382       .  A
C865        C873   1.381       .  A
C866        N867   1.354       .  A
C866        H879   1.077       .  S
N867        C868   1.353       .  A
N867        N909   1.413       .  S
C868        H869   1.081       .  S
C870        N871   1.363       .  A
C870        H880   1.079       .  S
N871        C872   1.358       .  A
N871        N902   1.412       .  S
C872        H878   1.080       .  S
C873        N874   1.348       .  A
C873        H875   1.074       .  S
N874        C979   1.444       .  S
N874        C876   1.357       .  A
C876        H877   1.082       .  S
C881        C882   1.517       .  S
C881       C1303   1.530   1_545  S
C881        C885   1.523       .  S
C881       C1033   1.468       .  S
C882        H889   1.086       .  S
C882       C1299   1.367   1_545  D
C883        C884   1.566       .  S
C883       C1298   1.367       .  D
C884        C888   1.543       .  S
C884        C886   1.559       .  S
C884        H890   1.110       .  S
C885        H891   1.076       .  S
C885       C1302   1.364       .  D
C886        C893   1.549       .  S
C886       C1301   1.364       .  D
C887       C1297   1.530       .  S
C887        H892   1.087       .  S
C887        C888   1.365       .  D
C888       C1035   1.441       .  S
C893       C1311   1.548       .  S
C893        C897   1.549       .  S
C893        C896   1.535       .  S
C894       C1314   1.531       .  S
C894        C900   1.528       .  S
C894        C899   1.528       .  S
C895       C1309   1.548       .  S
C895        C903   1.377       .  A
C895        C898   1.390       .  A
C896        C907   1.358       .  A
C896        C899   1.397       .  A
C897        C911   1.386       .  A
C897        C900   1.400       .  A
C898       C1310   1.531   1_545  S
C898        C901   1.382       .  A
C899        C905   1.380       .  A
C900        C908   1.362       .  A
C901        N902   1.355       .  A
C901        H914   1.081       .  S
N902        C903   1.354       .  A
C903        H904   1.076       .  S
C905        N906   1.360       .  A
C905        H915   1.082       .  S
N906        C944   1.431       .  S
N906        C907   1.349       .  A
C907        H913   1.072       .  S
C908        N909   1.357       .  A
C908        H910   1.081       .  S
N909        C911   1.365       .  A
C911        H912   1.078       .  S
In916       O918   2.244       .  S
In916       O919   2.251       .  S
In916       O927   2.245       .  S
In916       O921   2.251       .  S
In916       O923   2.294       .  S
In916       O924   2.246       .  S
In916       O925   2.213       .  S
In916       O928   2.248       .  S
C917        O923   1.263       .  A
C917        O925   1.259       .  A
O918        C926   1.259       .  A
O919        C926   1.259       .  A
C920        O927   1.259       .  A
C920        O921   1.263       .  A
C920       C1224   1.466   1_554  S
C922        O924   1.259       .  A
C922        O928   1.261       .  A
C922       C1034   1.436       .  S
C926       C1036   1.435       .  S
In929       O931   2.244   1_565  S
In929       O932   2.251   1_565  S
In929       O940   2.245   1_565  S
In929      O1350   2.251   1_565  S
In929       O936   2.294   1_565  S
In929      O1353   2.246       .  S
In929      O1354   2.213       .  S
In929      O1357   2.248       .  S
C930       O1352   1.263       .  A
C930        O938   1.259       .  A
C930        C954   1.509       .  S
O931        C939   1.259       .  A
O932        C939   1.259       .  A
C933        O940   1.259       .  A
C933       O1350   1.263       .  A
C933       C1045   1.466   1_554  S
O934      In1345   2.251       .  S
O934       C1349   1.263       .  A
C935        O937   1.259       .  A
C935        O941   1.261       .  A
C935       C1029   1.436       .  S
O936       C1346   1.263   1_545  A
O937      In1345   2.246       .  S
O938      In1345   2.213       .  S
C939       C1031   1.435       .  S
O941      In1345   2.248       .  S
C942        C943   1.513       .  S
C942       C1364   1.529       .  S
C942       C1025   1.465       .  S
C943        H950   1.086       .  S
C943       C1360   1.356       .  D
C944        C945   1.570       .  S
C944       C1359   1.356       .  D
C945        C949   1.542       .  S
C945        H951   1.109       .  S
C946        H952   1.075   1_455  S
C946       C1363   1.373       .  D
C947        C955   1.557   1_455  S
C947       C1362   1.373       .  D
C948       C1358   1.529       .  S
C948        H953   1.086       .  S
C948        C949   1.364       .  D
C949       C1027   1.443       .  S
C954       C1372   1.517       .  S
C954        C958   1.535       .  S
C954        C957   1.539       .  S
C955       C1375   1.560       .  S
C955        C961   1.547       .  S
C955        C960   1.534       .  S
C956       C1370   1.517       .  S
C956        C964   1.383       .  A
C956        C959   1.385       .  A
C957        C968   1.363       .  A
C957        C960   1.399       .  A
C958        C972   1.380       .  A
C958        C961   1.410       .  A
C959       C1371   1.560       .  S
C959        C962   1.383       .  A
C960        C966   1.382       .  A
C961        C969   1.381       .  A
C962        N963   1.354       .  A
C962        H975   1.077       .  S
N963        C964   1.353       .  A
N963       N1005   1.413       .  S
C964        H965   1.081       .  S
C966        N967   1.363       .  A
C966        H976   1.079       .  S
N967        C968   1.358       .  A
N967        N998   1.412       .  S
C968        H974   1.080       .  S
C969        N970   1.348       .  A
N970        C972   1.357       .  A
C972        H973   1.082       .  S
C977        C978   1.517       .  S
C977        C983   1.530       .  S
C977        C981   1.523       .  S
C977       C1030   1.468       .  S
C978        H985   1.086       .  S
C978        C979   1.367       .  D
C979        C980   1.566       .  S
C980        C984   1.543       .  S
C980        C982   1.559       .  S
C980        H986   1.110       .  S
C981        H987   1.076       .  S
C981        C982   1.364       .  D
C982        C989   1.549       .  S
C983        H988   1.087       .  S
C983        C984   1.365       .  D
C984       C1032   1.441       .  S
C989        C991   1.548       .  S
C989        C993   1.549       .  S
C989        C992   1.535       .  S
C990        C994   1.531       .  S
C990        C996   1.528       .  S
C990        C995   1.528       .  S
C990       C1013   1.507       .  S
C991        C999   1.377       .  A
C991        C994   1.390       .  A
C992       C1003   1.358       .  A
C992        C995   1.397       .  A
C993       C1007   1.386       .  A
C993        C996   1.400       .  A
C994        C997   1.382       .  A
C995       C1001   1.380       .  A
C996       C1004   1.362       .  A
C997        N998   1.355       .  A
C997       H1010   1.081       .  S
N998        C999   1.354       .  A
C999       H1000   1.076       .  S
C1001      N1002   1.360       .  A
C1001      H1011   1.082       .  S
N1002      C1003   1.349       .  A
C1003      H1009   1.072       .  S
C1004      N1005   1.357       .  A
C1004      H1006   1.081       .  S
N1005      C1007   1.365       .  A
C1007      H1008   1.078       .  S
In1012     O1014   2.249   1_455  S
In1012     O1015   2.255       .  S
In1012     O1017   2.253   1_455  S
In1012     O1019   2.290   1_455  S
In1012     O1021   2.217   1_455  S
In1012     O1024   2.241       .  S
C1013      O1019   1.264       .  A
C1013      O1021   1.259       .  A
O1014      C1022   1.259   1_655  A
O1015      C1022   1.259       .  A
C1016      O1023   1.259       .  A
C1016      C1128   1.466       .  S
C1018      O1024   1.261       .  A
C1018      C1026   1.431       .  S
C1022      C1028   1.437       .  S
C1029      C1030   1.206       .  T
C1031      C1032   1.205       .  T
C1033      C1034   1.206       .  T
C1035      C1036   1.205       .  T
C1037      C1038   1.204       .  T
C1039      C1040   1.207       .  T
In1041     O1043   2.249       .  S
In1041     O1044   2.255       .  S
In1041     O1052   2.245       .  S
In1041     O1462   2.253       .  S
In1041     O1048   2.290       .  S
In1041     O1465   2.238   1_545  S
In1041     O1466   2.217   1_545  S
In1041     O1469   2.241   1_545  S
C1042      O1464   1.264       .  A
C1042      O1050   1.259       .  A
C1042      C1102   1.507       .  S
O1043      C1051   1.259       .  A
O1044      C1051   1.259       .  A
C1045      O1052   1.259       .  A
C1045      O1462   1.263       .  A
O1046     In1457   2.253       .  S
O1046      C1461   1.263       .  A
C1047      O1049   1.260       .  A
C1047      O1053   1.261       .  A
C1047      C1245   1.431       .  S
O1048      C1458   1.264   1_545  A
O1049     In1457   2.238       .  S
O1050     In1457   2.217       .  S
C1051      C1248   1.437       .  S
O1053     In1457   2.241       .  S
C1054      C1055   1.513       .  S
C1054      C1060   1.529       .  S
C1054      C1058   1.527       .  S
C1054      C1246   1.465       .  S
C1055      H1062   1.086       .  S
C1055      C1056   1.356       .  D
C1056      C1057   1.570       .  S
C1056      N1210   1.431       .  S
C1057      C1061   1.542       .  S
C1057      C1059   1.551       .  S
C1057      H1063   1.109       .  S
C1058      H1064   1.075       .  S
C1058      C1059   1.373       .  D
C1059      C1067   1.557       .  S
C1060      H1065   1.086       .  S
C1060      C1061   1.364       .  D
C1061      C1247   1.443       .  S
C1066      C1068   1.517       .  S
C1066      C1070   1.535       .  S
C1066      C1069   1.539       .  S
C1066      C1125   1.509       .  S
C1067      C1071   1.560       .  S
C1067      C1073   1.547       .  S
C1067      C1072   1.534       .  S
C1068      C1076   1.383       .  A
C1068      C1071   1.385       .  A
C1069      C1080   1.363       .  A
C1069      C1072   1.399       .  A
C1070      C1084   1.380       .  A
C1070      C1073   1.410       .  A
C1071      C1074   1.383       .  A
C1072      C1078   1.382       .  A
C1073      C1081   1.381       .  A
C1074      N1075   1.354       .  A
C1074      H1087   1.077       .  S
N1075      C1076   1.353       .  A
N1075      N1117   1.413       .  S
C1076      H1077   1.081       .  S
C1078      N1079   1.363       .  A
C1078      H1088   1.079       .  S
N1079      C1080   1.358       .  A
N1079      N1110   1.412       .  S
C1080      H1086   1.080       .  S
C1081      N1082   1.348       .  A
C1081      H1083   1.074       .  S
N1082      C1187   1.444       .  S
N1082      C1084   1.357       .  A
C1084      H1085   1.082       .  S
C1089      C1090   1.517       .  S
C1089      C1511   1.530   1_545  S
C1089      C1093   1.523       .  S
C1089      C1241   1.468       .  S
C1090      H1097   1.086       .  S
C1090      C1507   1.367   1_545  D
C1091      C1092   1.566       .  S
C1091      C1506   1.367       .  D
C1092      C1096   1.543       .  S
C1092      C1094   1.559       .  S
C1092      H1098   1.110       .  S
C1093      H1099   1.076       .  S
C1093      C1510   1.364       .  D
C1094      C1101   1.549       .  S
C1094      C1509   1.364       .  D
C1095      C1505   1.530       .  S
C1095      H1100   1.087       .  S
C1095      C1096   1.365       .  D
C1096      C1243   1.441       .  S
C1101      C1519   1.548       .  S
C1101      C1105   1.549       .  S
C1101      C1104   1.535       .  S
C1102      C1522   1.531       .  S
C1102      C1108   1.528       .  S
C1102      C1107   1.528       .  S
C1103      C1517   1.548       .  S
C1103      C1111   1.377       .  A
C1103      C1106   1.390       .  A
C1104      C1115   1.358       .  A
C1104      C1107   1.397       .  A
C1105      C1119   1.386       .  A
C1105      C1108   1.400       .  A
C1106      C1518   1.531   1_545  S
C1106      C1109   1.382       .  A
C1107      C1113   1.380       .  A
C1108      C1116   1.362       .  A
C1109      N1110   1.355       .  A
C1109      H1122   1.081       .  S
N1110      C1111   1.354       .  A
C1111      H1112   1.076       .  S
C1113      N1114   1.360       .  A
C1113      H1123   1.082       .  S
N1114      C1152   1.431       .  S
N1114      C1115   1.349       .  A
C1115      H1121   1.072       .  S
C1116      N1117   1.357       .  A
C1116      H1118   1.081       .  S
N1117      C1119   1.365       .  A
C1119      H1120   1.078       .  S
In1124     O1126   2.244       .  S
In1124     O1127   2.251       .  S
In1124     O1135   2.245       .  S
In1124     O1129   2.251       .  S
In1124     O1131   2.294       .  S
In1124     O1132   2.246       .  S
In1124     O1133   2.213       .  S
In1124     O1136   2.248       .  S
C1125      O1131   1.263       .  A
C1125      O1133   1.259       .  A
O1126      C1134   1.259       .  A
O1127      C1134   1.259       .  A
C1128      O1135   1.259       .  A
C1128      O1129   1.263       .  A
C1130      O1132   1.259       .  A
C1130      O1136   1.261       .  A
C1130      C1242   1.436       .  S
C1134      C1244   1.435       .  S
In1137     O1139   2.244   1_565  S
In1137     O1140   2.251   1_565  S
In1137     O1148   2.245   1_565  S
In1137     O1558   2.251   1_565  S
In1137     O1144   2.294   1_565  S
In1137     O1561   2.246       .  S
In1137     O1562   2.213       .  S
In1137     O1565   2.248       .  S
C1138      O1560   1.263       .  A
C1138      O1146   1.259       .  A
C1138      C1162   1.509       .  S
O1139      C1147   1.259       .  A
O1140      C1147   1.259       .  A
C1141      O1148   1.259       .  A
C1141      O1558   1.263       .  A
O1142     In1553   2.251       .  S
O1142      C1557   1.263       .  A
C1143      O1145   1.259       .  A
C1143      O1149   1.261       .  A
C1143      C1237   1.436       .  S
O1144      C1554   1.263   1_545  A
O1145     In1553   2.246       .  S
O1146     In1553   2.213       .  S
C1147      C1239   1.435       .  S
O1149     In1553   2.248       .  S
C1150      C1151   1.513       .  S
C1150      C1572   1.529       .  S
C1150      C1233   1.465       .  S
C1151      H1158   1.086       .  S
C1151      C1568   1.356       .  D
C1152      C1153   1.570       .  S
C1152      C1567   1.356       .  D
C1153      C1157   1.542       .  S
C1153      H1159   1.109       .  S
C1154      H1160   1.075   1_455  S
C1154      C1571   1.373       .  D
C1155      C1163   1.557   1_455  S
C1155      C1570   1.373       .  D
C1156      C1566   1.529       .  S
C1156      H1161   1.086       .  S
C1156      C1157   1.364       .  D
C1157      C1235   1.443       .  S
C1162      C1580   1.517       .  S
C1162      C1166   1.535       .  S
C1162      C1165   1.539       .  S
C1163      C1583   1.560       .  S
C1163      C1169   1.547       .  S
C1163      C1168   1.534       .  S
C1164      C1578   1.517       .  S
C1164      C1172   1.383       .  A
C1164      C1167   1.385       .  A
C1165      C1176   1.363       .  A
C1165      C1168   1.399       .  A
C1166      C1180   1.380       .  A
C1166      C1169   1.410       .  A
C1167      C1579   1.560       .  S
C1167      C1170   1.383       .  A
C1168      C1174   1.382       .  A
C1169      C1177   1.381       .  A
C1170      N1171   1.354       .  A
C1170      H1183   1.077       .  S
N1171      C1172   1.353       .  A
N1171      N1213   1.413       .  S
C1172      H1173   1.081       .  S
C1174      N1175   1.363       .  A
C1174      H1184   1.079       .  S
N1175      C1176   1.358       .  A
N1175      N1206   1.412       .  S
C1176      H1182   1.080       .  S
C1177      N1178   1.348       .  A
N1178      C1180   1.357       .  A
C1180      H1181   1.082       .  S
C1185      C1186   1.517       .  S
C1185      C1191   1.530       .  S
C1185      C1189   1.523       .  S
C1185      C1238   1.468       .  S
C1186      H1193   1.086       .  S
C1186      C1187   1.367       .  D
C1187      C1188   1.566       .  S
C1188      C1192   1.543       .  S
C1188      C1190   1.559       .  S
C1188      H1194   1.110       .  S
C1189      H1195   1.076       .  S
C1189      C1190   1.364       .  D
C1190      C1197   1.549       .  S
C1191      H1196   1.087       .  S
C1191      C1192   1.365       .  D
C1192      C1240   1.441       .  S
C1197      C1199   1.548       .  S
C1197      C1201   1.549       .  S
C1197      C1200   1.535       .  S
C1198      C1202   1.531       .  S
C1198      C1204   1.528       .  S
C1198      C1203   1.528       .  S
C1198      C1221   1.507       .  S
C1199      C1207   1.377       .  A
C1199      C1202   1.390       .  A
C1200      C1211   1.358       .  A
C1200      C1203   1.397       .  A
C1201      C1215   1.386       .  A
C1201      C1204   1.400       .  A
C1202      C1205   1.382       .  A
C1203      C1209   1.380       .  A
C1204      C1212   1.362       .  A
C1205      N1206   1.355       .  A
C1205      H1218   1.081       .  S
N1206      C1207   1.354       .  A
C1207      H1208   1.076       .  S
C1209      N1210   1.360       .  A
C1209      H1219   1.082       .  S
N1210      C1211   1.349       .  A
C1211      H1217   1.072       .  S
C1212      N1213   1.357       .  A
C1212      H1214   1.081       .  S
N1213      C1215   1.365       .  A
C1215      H1216   1.078       .  S
In1220     O1222   2.249   1_455  S
In1220     O1223   2.255       .  S
In1220     O1225   2.253   1_455  S
In1220     O1227   2.290   1_455  S
In1220     O1229   2.217   1_455  S
In1220     O1232   2.241       .  S
C1221      O1227   1.264       .  A
C1221      O1229   1.259       .  A
O1222      C1230   1.259   1_655  A
O1223      C1230   1.259       .  A
C1224      O1231   1.259       .  A
C1226      O1232   1.261       .  A
C1226      C1234   1.431       .  S
C1230      C1236   1.437       .  S
C1237      C1238   1.206       .  T
C1239      C1240   1.205       .  T
C1241      C1242   1.206       .  T
C1243      C1244   1.205       .  T
C1245      C1246   1.204       .  T
C1247      C1248   1.207       .  T
In1249     O1251   2.249       .  S
In1249     O1252   2.255       .  S
In1249     O1260   2.245       .  S
In1249     O1256   2.290       .  S
C1250      O1258   1.259       .  A
C1250      C1310   1.507       .  S
O1251      C1259   1.259       .  A
O1252      C1259   1.259       .  A
C1253      O1260   1.259       .  A
C1253      C1557   1.466       .  S
C1255      O1257   1.260       .  A
C1255      O1261   1.261       .  A
C1255      C1453   1.431       .  S
C1259      C1456   1.437       .  S
C1262      C1263   1.513       .  S
C1262      C1268   1.529       .  S
C1262      C1266   1.527       .  S
C1262      C1454   1.465       .  S
C1263      H1270   1.086       .  S
C1263      C1264   1.356       .  D
C1264      C1265   1.570       .  S
C1264      N1418   1.431       .  S
C1265      C1269   1.542       .  S
C1265      C1267   1.551       .  S
C1265      H1271   1.109       .  S
C1266      H1272   1.075       .  S
C1266      C1267   1.373       .  D
C1267      C1275   1.557       .  S
C1268      H1273   1.086       .  S
C1268      C1269   1.364       .  D
C1269      C1455   1.443       .  S
C1274      C1276   1.517       .  S
C1274      C1278   1.535       .  S
C1274      C1277   1.539       .  S
C1274      C1333   1.509       .  S
C1275      C1279   1.560       .  S
C1275      C1281   1.547       .  S
C1275      C1280   1.534       .  S
C1276      C1284   1.383       .  A
C1276      C1279   1.385       .  A
C1277      C1288   1.363       .  A
C1277      C1280   1.399       .  A
C1278      C1292   1.380       .  A
C1278      C1281   1.410       .  A
C1279      C1282   1.383       .  A
C1280      C1286   1.382       .  A
C1281      C1289   1.381       .  A
C1282      N1283   1.354       .  A
C1282      H1295   1.077       .  S
N1283      C1284   1.353       .  A
N1283      N1325   1.413       .  S
C1284      H1285   1.081       .  S
C1286      N1287   1.363       .  A
C1286      H1296   1.079       .  S
N1287      C1288   1.358       .  A
N1287      N1318   1.412       .  S
C1288      H1294   1.080       .  S
C1289      N1290   1.348       .  A
C1289      H1291   1.074       .  S
N1290      C1395   1.444       .  S
N1290      C1292   1.357       .  A
C1292      H1293   1.082       .  S
C1297      C1298   1.517       .  S
C1297      C1301   1.523       .  S
C1297      C1449   1.468       .  S
C1298      H1305   1.086       .  S
C1299      C1300   1.566       .  S
C1300      C1304   1.543       .  S
C1300      C1302   1.559   1_565  S
C1300      H1306   1.110       .  S
C1301      H1307   1.076       .  S
C1302      C1309   1.549       .  S
C1303      H1308   1.087       .  S
C1303      C1304   1.365       .  D
C1304      C1451   1.441       .  S
C1309      C1313   1.549   1_545  S
C1309      C1312   1.535       .  S
C1310      C1316   1.528       .  S
C1310      C1315   1.528   1_565  S
C1311      C1319   1.377       .  A
C1311      C1314   1.390       .  A
C1312      C1323   1.358       .  A
C1312      C1315   1.397       .  A
C1313      C1327   1.386       .  A
C1313      C1316   1.400       .  A
C1314      C1317   1.382       .  A
C1315      C1321   1.380       .  A
C1316      C1324   1.362       .  A
C1317      N1318   1.355       .  A
C1317      H1330   1.081       .  S
N1318      C1319   1.354       .  A
C1319      H1320   1.076       .  S
C1321      N1322   1.360       .  A
C1321      H1331   1.082   1_545  S
N1322      C1360   1.431       .  S
N1322      C1323   1.349       .  A
C1323      H1329   1.072       .  S
C1324      N1325   1.357       .  A
C1324      H1326   1.081       .  S
N1325      C1327   1.365       .  A
C1327      H1328   1.078       .  S
In1332     O1334   2.244       .  S
In1332     O1335   2.251       .  S
In1332     O1343   2.245       .  S
In1332     O1337   2.251       .  S
In1332     O1339   2.294       .  S
In1332     O1340   2.246       .  S
In1332     O1341   2.213       .  S
In1332     O1344   2.248       .  S
C1333      O1339   1.263       .  A
C1333      O1341   1.259       .  A
O1334      C1342   1.259       .  A
O1335      C1342   1.259       .  A
C1336      O1343   1.259       .  A
C1336      O1337   1.263       .  A
C1336      C1640   1.466   1_554  S
C1338      O1340   1.259       .  A
C1338      O1344   1.261       .  A
C1338      C1450   1.436       .  S
C1342      C1452   1.435       .  S
In1345     O1347   2.244       .  S
In1345     O1348   2.251       .  S
In1345     O1356   2.245       .  S
In1345     O1352   2.294       .  S
C1346      O1354   1.259       .  A
C1346      C1370   1.509   1_565  S
O1347      C1355   1.259       .  A
O1348      C1355   1.259       .  A
C1349      O1356   1.259       .  A
C1349      C1461   1.466   1_554  S
C1351      O1353   1.259       .  A
C1351      O1357   1.261       .  A
C1351      C1445   1.436       .  S
C1355      C1447   1.435       .  S
C1358      C1359   1.513       .  S
C1358      C1441   1.465       .  S
C1359      H1366   1.086       .  S
C1360      C1361   1.570   1_545  S
C1361      C1365   1.542       .  S
C1361      H1367   1.109       .  S
C1362      H1368   1.075   1_455  S
C1363      C1371   1.557   1_455  S
C1364      H1369   1.086   1_545  S
C1364      C1365   1.364   1_545  D
C1365      C1443   1.443       .  S
C1370      C1374   1.535       .  S
C1370      C1373   1.539   1_545  S
C1371      C1377   1.547       .  S
C1371      C1376   1.534   1_545  S
C1372      C1380   1.383       .  A
C1372      C1375   1.385       .  A
C1373      C1384   1.363       .  A
C1373      C1376   1.399       .  A
C1374      C1388   1.380   1_545  A
C1374      C1377   1.410       .  A
C1375      C1378   1.383       .  A
C1376      C1382   1.382       .  A
C1377      C1385   1.381   1_545  A
C1378      N1379   1.354       .  A
C1378      H1391   1.077       .  S
N1379      C1380   1.353       .  A
N1379      N1421   1.413       .  S
C1380      H1381   1.081       .  S
C1382      N1383   1.363       .  A
C1382      H1392   1.079       .  S
N1383      C1384   1.358       .  A
N1383      N1414   1.412       .  S
C1384      H1390   1.080       .  S
C1385      N1386   1.348       .  A
N1386      C1388   1.357       .  A
C1388      H1389   1.082       .  S
C1393      C1394   1.517       .  S
C1393      C1399   1.530       .  S
C1393      C1397   1.523       .  S
C1393      C1446   1.468       .  S
C1394      H1401   1.086       .  S
C1394      C1395   1.367       .  D
C1395      C1396   1.566       .  S
C1396      C1400   1.543       .  S
C1396      C1398   1.559       .  S
C1396      H1402   1.110       .  S
C1397      H1403   1.076       .  S
C1397      C1398   1.364       .  D
C1398      C1405   1.549       .  S
C1399      H1404   1.087       .  S
C1399      C1400   1.365       .  D
C1400      C1448   1.441       .  S
C1405      C1407   1.548       .  S
C1405      C1409   1.549       .  S
C1405      C1408   1.535       .  S
C1406      C1410   1.531       .  S
C1406      C1412   1.528       .  S
C1406      C1411   1.528       .  S
C1406      C1429   1.507       .  S
C1407      C1415   1.377       .  A
C1407      C1410   1.390       .  A
C1408      C1419   1.358       .  A
C1408      C1411   1.397       .  A
C1409      C1423   1.386       .  A
C1409      C1412   1.400       .  A
C1410      C1413   1.382       .  A
C1411      C1417   1.380       .  A
C1412      C1420   1.362       .  A
C1413      N1414   1.355       .  A
C1413      H1426   1.081       .  S
N1414      C1415   1.354       .  A
C1415      H1416   1.076       .  S
C1417      N1418   1.360       .  A
C1417      H1427   1.082       .  S
N1418      C1419   1.349       .  A
C1419      H1425   1.072       .  S
C1420      N1421   1.357       .  A
C1420      H1422   1.081       .  S
N1421      C1423   1.365       .  A
C1423      H1424   1.078       .  S
In1428     O1430   2.249   1_455  S
In1428     O1431   2.255       .  S
In1428     O1433   2.253   1_455  S
In1428     O1435   2.290   1_455  S
In1428     O1437   2.217   1_455  S
In1428     O1440   2.241       .  S
C1429      O1435   1.264       .  A
C1429      O1437   1.259       .  A
O1430      C1438   1.259   1_655  A
O1431      C1438   1.259       .  A
C1432      O1439   1.259       .  A
C1432      C1544   1.466       .  S
C1434      O1440   1.261       .  A
C1434      C1442   1.431       .  S
C1438      C1444   1.437       .  S
C1445      C1446   1.206       .  T
C1447      C1448   1.205       .  T
C1449      C1450   1.206       .  T
C1451      C1452   1.205       .  T
C1453      C1454   1.204       .  T
C1455      C1456   1.207       .  T
In1457     O1459   2.249       .  S
In1457     O1460   2.255       .  S
In1457     O1468   2.245       .  S
In1457     O1464   2.290       .  S
C1458      O1466   1.259       .  A
C1458      C1518   1.507       .  S
O1459      C1467   1.259       .  A
O1460      C1467   1.259       .  A
C1461      O1468   1.259       .  A
C1463      O1465   1.260       .  A
C1463      O1469   1.261       .  A
C1463      C1661   1.431       .  S
C1467      C1664   1.437       .  S
C1470      C1471   1.513       .  S
C1470      C1476   1.529       .  S
C1470      C1474   1.527       .  S
C1470      C1662   1.465       .  S
C1471      H1478   1.086       .  S
C1471      C1472   1.356       .  D
C1472      C1473   1.570       .  S
C1472      N1626   1.431       .  S
C1473      C1477   1.542       .  S
C1473      C1475   1.551       .  S
C1473      H1479   1.109       .  S
C1474      H1480   1.075       .  S
C1474      C1475   1.373       .  D
C1475      C1483   1.557       .  S
C1476      H1481   1.086       .  S
C1476      C1477   1.364       .  D
C1477      C1663   1.443       .  S
C1482      C1484   1.517       .  S
C1482      C1486   1.535       .  S
C1482      C1485   1.539       .  S
C1482      C1541   1.509       .  S
C1483      C1487   1.560       .  S
C1483      C1489   1.547       .  S
C1483      C1488   1.534       .  S
C1484      C1492   1.383       .  A
C1484      C1487   1.385       .  A
C1485      C1496   1.363       .  A
C1485      C1488   1.399       .  A
C1486      C1500   1.380       .  A
C1486      C1489   1.410       .  A
C1487      C1490   1.383       .  A
C1488      C1494   1.382       .  A
C1489      C1497   1.381       .  A
C1490      N1491   1.354       .  A
C1490      H1503   1.077       .  S
N1491      C1492   1.353       .  A
N1491      N1533   1.413       .  S
C1492      H1493   1.081       .  S
C1494      N1495   1.363       .  A
C1494      H1504   1.079       .  S
N1495      C1496   1.358       .  A
N1495      N1526   1.412       .  S
C1496      H1502   1.080       .  S
C1497      N1498   1.348       .  A
C1497      H1499   1.074       .  S
N1498      C1603   1.444       .  S
N1498      C1500   1.357       .  A
C1500      H1501   1.082       .  S
C1505      C1506   1.517       .  S
C1505      C1509   1.523       .  S
C1505      C1657   1.468       .  S
C1506      H1513   1.086       .  S
C1507      C1508   1.566       .  S
C1508      C1512   1.543       .  S
C1508      C1510   1.559   1_565  S
C1508      H1514   1.110       .  S
C1509      H1515   1.076       .  S
C1510      C1517   1.549       .  S
C1511      H1516   1.087       .  S
C1511      C1512   1.365       .  D
C1512      C1659   1.441       .  S
C1517      C1521   1.549   1_545  S
C1517      C1520   1.535       .  S
C1518      C1524   1.528       .  S
C1518      C1523   1.528   1_565  S
C1519      C1527   1.377       .  A
C1519      C1522   1.390       .  A
C1520      C1531   1.358       .  A
C1520      C1523   1.397       .  A
C1521      C1535   1.386       .  A
C1521      C1524   1.400       .  A
C1522      C1525   1.382       .  A
C1523      C1529   1.380       .  A
C1524      C1532   1.362       .  A
C1525      N1526   1.355       .  A
C1525      H1538   1.081       .  S
N1526      C1527   1.354       .  A
C1527      H1528   1.076       .  S
C1529      N1530   1.360       .  A
C1529      H1539   1.082   1_545  S
N1530      C1568   1.431       .  S
N1530      C1531   1.349       .  A
C1531      H1537   1.072       .  S
C1532      N1533   1.357       .  A
C1532      H1534   1.081       .  S
N1533      C1535   1.365       .  A
C1535      H1536   1.078       .  S
In1540     O1542   2.244       .  S
In1540     O1543   2.251       .  S
In1540     O1551   2.245       .  S
In1540     O1545   2.251       .  S
In1540     O1547   2.294       .  S
In1540     O1548   2.246       .  S
In1540     O1549   2.213       .  S
In1540     O1552   2.248       .  S
C1541      O1547   1.263       .  A
C1541      O1549   1.259       .  A
O1542      C1550   1.259       .  A
O1543      C1550   1.259       .  A
C1544      O1551   1.259       .  A
C1544      O1545   1.263       .  A
C1546      O1548   1.259       .  A
C1546      O1552   1.261       .  A
C1546      C1658   1.436       .  S
C1550      C1660   1.435       .  S
In1553     O1555   2.244       .  S
In1553     O1556   2.251       .  S
In1553     O1564   2.245       .  S
In1553     O1560   2.294       .  S
C1554      O1562   1.259       .  A
C1554      C1578   1.509   1_565  S
O1555      C1563   1.259       .  A
O1556      C1563   1.259       .  A
C1557      O1564   1.259       .  A
C1559      O1561   1.259       .  A
C1559      O1565   1.261       .  A
C1559      C1653   1.436       .  S
C1563      C1655   1.435       .  S
C1566      C1567   1.513       .  S
C1566      C1649   1.465       .  S
C1567      H1574   1.086       .  S
C1568      C1569   1.570   1_545  S
C1569      C1573   1.542       .  S
C1569      H1575   1.109       .  S
C1570      H1576   1.075   1_455  S
C1571      C1579   1.557   1_455  S
C1572      H1577   1.086   1_545  S
C1572      C1573   1.364   1_545  D
C1573      C1651   1.443       .  S
C1578      C1582   1.535       .  S
C1578      C1581   1.539   1_545  S
C1579      C1585   1.547       .  S
C1579      C1584   1.534   1_545  S
C1580      C1588   1.383       .  A
C1580      C1583   1.385       .  A
C1581      C1592   1.363       .  A
C1581      C1584   1.399       .  A
C1582      C1596   1.380   1_545  A
C1582      C1585   1.410       .  A
C1583      C1586   1.383       .  A
C1584      C1590   1.382       .  A
C1585      C1593   1.381   1_545  A
C1586      N1587   1.354       .  A
C1586      H1599   1.077       .  S
N1587      C1588   1.353       .  A
N1587      N1629   1.413       .  S
C1588      H1589   1.081       .  S
C1590      N1591   1.363       .  A
C1590      H1600   1.079       .  S
N1591      C1592   1.358       .  A
N1591      N1622   1.412       .  S
C1592      H1598   1.080       .  S
C1593      N1594   1.348       .  A
N1594      C1596   1.357       .  A
C1596      H1597   1.082       .  S
C1601      C1602   1.517       .  S
C1601      C1607   1.530       .  S
C1601      C1605   1.523       .  S
C1601      C1654   1.468       .  S
C1602      H1609   1.086       .  S
C1602      C1603   1.367       .  D
C1603      C1604   1.566       .  S
C1604      C1608   1.543       .  S
C1604      C1606   1.559       .  S
C1604      H1610   1.110       .  S
C1605      H1611   1.076       .  S
C1605      C1606   1.364       .  D
C1606      C1613   1.549       .  S
C1607      H1612   1.087       .  S
C1607      C1608   1.365       .  D
C1608      C1656   1.441       .  S
C1613      C1615   1.548       .  S
C1613      C1617   1.549       .  S
C1613      C1616   1.535       .  S
C1614      C1618   1.531       .  S
C1614      C1620   1.528       .  S
C1614      C1619   1.528       .  S
C1614      C1637   1.507       .  S
C1615      C1623   1.377       .  A
C1615      C1618   1.390       .  A
C1616      C1627   1.358       .  A
C1616      C1619   1.397       .  A
C1617      C1631   1.386       .  A
C1617      C1620   1.400       .  A
C1618      C1621   1.382       .  A
C1619      C1625   1.380       .  A
C1620      C1628   1.362       .  A
C1621      N1622   1.355       .  A
C1621      H1634   1.081       .  S
N1622      C1623   1.354       .  A
C1623      H1624   1.076       .  S
C1625      N1626   1.360       .  A
C1625      H1635   1.082       .  S
N1626      C1627   1.349       .  A
C1627      H1633   1.072       .  S
C1628      N1629   1.357       .  A
C1628      H1630   1.081       .  S
N1629      C1631   1.365       .  A
C1631      H1632   1.078       .  S
In1636     O1638   2.249   1_455  S
In1636     O1639   2.255       .  S
In1636     O1641   2.253   1_455  S
In1636     O1643   2.290   1_455  S
In1636     O1645   2.217   1_455  S
In1636     O1648   2.241       .  S
C1637      O1643   1.264       .  A
C1637      O1645   1.259       .  A
O1638      C1646   1.259   1_655  A
O1639      C1646   1.259       .  A
C1640      O1647   1.259       .  A
C1642      O1648   1.261       .  A
C1642      C1650   1.431       .  S
C1646      C1652   1.437       .  S
C1653      C1654   1.206       .  T
C1655      C1656   1.205       .  T
C1657      C1658   1.206       .  T
C1659      C1660   1.205       .  T
C1661      C1662   1.204       .  T
C1663      C1664   1.207       .  T
