geometry optimzed in LAMMPS
_audit_creation_date              2020-12-01 
_audit_creation_method            'lammps2cif' 
_symmetry_space_group_name_H-M    'P1' 
_symmetry_Int_Tables_number       1 
_symmetry_cell_setting            triclinic 
loop_ 
_symmetry_equiv_pos_as_xyz 
  x,y,z 
_cell_length_a                    45.59694313 
_cell_length_b                    45.82815793789203 
_cell_length_c                    34.021763609275574 
_cell_angle_alpha                 90.02478305767936 
_cell_angle_beta                  89.90709426285657 
_cell_angle_gamma                 89.69135269022532 
loop_ 
_atom_site_label 
_atom_site_type_symbol 
_atom_site_fract_x 
_atom_site_fract_y 
_atom_site_fract_z 
_atom_site_charge 
N1          N  0.96374437  0.76250343  0.48401690    -0.03000
C2          C  0.95966182  0.73320640  0.48055948    -0.00400
C3          C  0.95038190  0.72224855  0.01577545    -0.23300
C4          C  0.94989320  0.74498335  0.04220332    -0.23500
C5          C  0.95763967  0.76982442  0.02169318    -0.00500
H6          H  0.94645289  0.69950016  0.02235448     0.13300
H7          H  0.94547095  0.74339542  0.07338952     0.13300
N8          N  0.05829607  0.23319806  0.00457752    -0.03000
C9          C  0.06614535  0.26128645  0.01164833    -0.00400
C10         C  0.07392272  0.27450236  0.47534018    -0.23300
C11         C  0.07186496  0.25351609  0.44647767    -0.23500
C12         C  0.06101842  0.22874213  0.46436522    -0.00500
H13         H  0.08047853  0.29694493  0.47112067     0.13300
H14         H  0.07683676  0.25628661  0.41559498     0.13300
N15         N  0.74445576  0.95871428  0.48809071    -0.03000
C16         C  0.77368387  0.95515366  0.48160765    -0.00400
C17         C  0.78739928  0.94799311  0.01639303    -0.23300
C18         C  0.76614182  0.94741759  0.04518682    -0.23500
C19         C  0.73997406  0.95457822  0.02711117    -0.00500
H20         H  0.81062202  0.94409856  0.02049366     0.13300
H21         H  0.76950059  0.94305557  0.07611346     0.13300
N22         N  0.27262943  0.04581994  0.00863954    -0.03000
C23         C  0.24411829  0.05315558  0.01461272    -0.00400
C24         C  0.23302510  0.06714563  0.48185383    -0.23300
C25         C  0.25550346  0.06825674  0.45480452    -0.23500
C26         C  0.27961787  0.05516718  0.47211892    -0.00500
H27         H  0.21062637  0.07426954  0.47726934     0.13300
H28         H  0.25408292  0.07659696  0.42511340     0.13300
N29         N  0.54137398  0.73184002  0.48654503    -0.03000
C30         C  0.54782758  0.76024587  0.47928672    -0.00400
C31         C  0.55427100  0.77436613  0.01457697    -0.23300
C32         C  0.55151591  0.75391729  0.04397341    -0.23500
C33         C  0.54342574  0.72814564  0.02602036    -0.00500
H34         H  0.55948108  0.79719345  0.01849276     0.13300
H35         H  0.55458398  0.75755269  0.07512245     0.13300
N36         N  0.46854507  0.26353255  0.00830311    -0.03000
C37         C  0.46283453  0.23460258  0.01243237    -0.00400
C38         C  0.45721669  0.22287385  0.47654430    -0.23300
C39         C  0.45962552  0.24492447  0.44930525    -0.23500
C40         C  0.46681703  0.26987161  0.46984728    -0.00500
H41         H  0.45285557  0.20014428  0.47035166     0.13300
H42         H  0.45723291  0.24283326  0.41779179     0.13300
N43         N  0.24171823  0.44020894  0.01578956    -0.03000
C44         C  0.26938555  0.43041931  0.02230180    -0.00400
C45         C  0.28013598  0.41709792  0.48962057    -0.23300
C46         C  0.25802833  0.41837871  0.46202024    -0.23500
C47         C  0.23444555  0.43219738  0.47976343    -0.00500
H48         H  0.30208666  0.40863302  0.48511336     0.13300
H49         H  0.25925451  0.41070132  0.43197890     0.13300
N50         N  0.77042065  0.53801863  0.49058869    -0.03000
C51         C  0.74161498  0.54457987  0.48608234    -0.00400
C52         C  0.73054722  0.56114387  0.01975615    -0.23300
C53         C  0.75289445  0.56226651  0.04683858    -0.23500
C54         C  0.77757714  0.55074162  0.02876397    -0.00500
H55         H  0.70797559  0.56770718  0.02443125     0.13300
H56         H  0.75117875  0.56999607  0.07681898     0.13300
O57         O  0.58285487  0.48248809  0.27913764    -0.80400
O58         O  0.45220314  0.46758562  0.21612333    -0.65100
O59         O  0.53228475  0.48870990  0.23192381    -1.11700
C60         C  0.49341110  0.56519265  0.30873731     1.06500
O61         O  0.43507269  0.51292167  0.21019521    -0.78300
O62         O  0.48007925  0.55139915  0.20489435    -0.65900
Ni63       Ni  0.56006044  0.45830364  0.24470431     1.34900
C64         C  0.50722249  0.55751026  0.20496561     0.85200
O65         O  0.50165140  0.44870702  0.18586191    -0.78900
O66         O  0.54224853  0.42941825  0.21110354    -0.89100
C67         C  0.43287666  0.48556733  0.20444575     0.84800
O68         O  0.53840061  0.44481152  0.28869549    -0.67300
O69         O  0.47291591  0.56517826  0.28328252    -0.86600
C70         C  0.51136147  0.43875767  0.29121635     0.85600
C71         C  0.52060419  0.42848617  0.18768869     1.07200
H72         H  0.47599108  0.49792379  0.28585582     0.39000
O73         O  0.48350736  0.50676311  0.26219968    -1.09300
O74         O  0.52487987  0.54799469  0.23115097    -0.65900
Ni75       Ni  0.52330833  0.51763342  0.27116174     1.26300
O76         O  0.49243849  0.44786462  0.26616645    -0.66200
O77         O  0.51309577  0.54556102  0.31026996    -0.78500
C78         C  0.58369287  0.50914404  0.28928119     0.85000
O79         O  0.56325401  0.52700100  0.28135358    -0.65600
Ni80       Ni  0.45645909  0.53709070  0.24698128     1.27400
Ni81       Ni  0.49236323  0.47724769  0.22437073     1.26100
H82         H  0.53905774  0.49811065  0.20812971     0.39500
O83         O  0.48315279  0.93010286  0.28836789    -0.80400
O84         O  0.48268018  0.05681683  0.21913416    -0.65100
O85         O  0.49397465  0.97462828  0.23205352    -1.11700
C86         C  0.57694896  0.00269098  0.30617362     1.06500
O87         O  0.52968912  0.06461632  0.20591931    -0.78300
O88         O  0.56707497  0.01884399  0.20636589    -0.65900
Ni89       Ni  0.46215288  0.94972491  0.24647221     1.34900
C90         C  0.56779941  0.99131282  0.20248391     0.85200
O91         O  0.45483111  0.01057377  0.19106449    -0.78900
O92         O  0.43787686  0.96599948  0.20561555    -0.89100
C93         C  0.50268624  0.07158912  0.20269612     0.84800
O94         O  0.44478803  0.97461573  0.28490847    -0.67300
O95         O  0.57676279  0.02599357  0.28546625    -0.86600
C96         C  0.44560438  0.00185171  0.29144762     0.85600
C97         C  0.43684335  0.98976679  0.18610464     1.07200
H98         H  0.51245636  0.02664317  0.28621407     0.39000
O99         O  0.51942436  0.01921058  0.26129489    -1.09300
O100        O  0.55366233  0.97390217  0.22461772    -0.65900
Ni101      Ni  0.52599850  0.97817842  0.26756478     1.26300
O102        O  0.46040156  0.01953425  0.27047633    -0.66200
O103        O  0.55755436  0.98302406  0.30329704    -0.78500
C104        C  0.50979945  0.92183089  0.28989584     0.85000
O105        O  0.53005107  0.93687629  0.27449982    -0.65600
Ni106      Ni  0.55145063  0.04363632  0.24623861     1.27400
Ni107      Ni  0.48699310  0.01558241  0.22623261     1.26100
H108        H  0.50126905  0.96746382  0.20716557     0.39500
O109        O  0.93826220  0.02290237  0.28322062    -0.80400
O110        O  0.06670535  0.02291386  0.21830233    -0.65100
O111        O  0.98419844  0.01263661  0.22838192    -1.11700
C112        C  0.01111168  0.92906254  0.30339151     1.06500
O113        O  0.07556989  0.97610431  0.20637819    -0.78300
O114        O  0.03005930  0.93792112  0.20611633    -0.65900
Ni115      Ni  0.95915259  0.04445936  0.24298270     1.34900
C116        C  0.00260161  0.93806343  0.19971344     0.85200
O117        O  0.02099742  0.05083440  0.18782661    -0.78900
O118        O  0.97679507  0.06922123  0.20368630    -0.89100
C119        C  0.08291358  0.00287581  0.20436453     0.84800
O120        O  0.98339189  0.06081354  0.28293486    -0.67300
O121        O  0.03571337  0.93015634  0.28540212    -0.86600
C122        C  0.01097611  0.06109580  0.28790232     0.85600
C123        C  0.00078713  0.06996881  0.18430657     1.07200
H124        H  0.03482139  0.99398391  0.28451741     0.39000
O125        O  0.02833168  0.98682530  0.25929451    -1.09300
O126        O  0.98456260  0.95384600  0.21903096    -0.65900
Ni127      Ni  0.98709512  0.98022780  0.26324896     1.26300
O128        O  0.02864813  0.04606029  0.26700590    -0.66200
O129        O  0.99089114  0.94788765  0.29830723    -0.78500
C130        C  0.93078058  0.99618816  0.28491724     0.85000
O131        O  0.94560075  0.97636878  0.26802365    -0.65600
Ni132      Ni  0.05379789  0.95484826  0.24624416     1.27400
Ni133      Ni  0.02533831  0.01896151  0.22364015     1.26100
H134        H  0.97729051  0.00587745  0.20315749     0.39500
O135        O  0.02907870  0.55789801  0.29546765    -0.80400
O136        O  0.03064679  0.43065967  0.22728970    -0.65100
O137        O  0.01963989  0.51282071  0.23948319    -1.11700
C138        C  0.93158713  0.48510326  0.30292609     1.06500
O139        O  0.98500556  0.42460347  0.20650071    -0.78300
O140        O  0.94851339  0.47108674  0.20399780    -0.65900
Ni141      Ni  0.05118858  0.53782368  0.25467221     1.34900
C142        C  0.94737107  0.49872379  0.20222999     0.85200
O143        O  0.06065235  0.47611246  0.20258874    -0.78900
O144        O  0.07667106  0.52133603  0.21479186    -0.89100
C145        C  0.01198976  0.41712419  0.20664982     0.84800
O146        O  0.06793396  0.51295061  0.29365835    -0.67300
O147        O  0.93264053  0.46258154  0.28077207    -0.86600
C148        C  0.06642210  0.48585706  0.30123195     0.85600
C149        C  0.07855295  0.49681543  0.19707524     1.07200
H150        H  0.99698687  0.46013864  0.29039139     0.39000
O151        O  0.99189312  0.46833810  0.26513629    -1.09300
O152        O  0.96040328  0.51509541  0.22694082    -0.65900
Ni153      Ni  0.98570334  0.50922222  0.27224484     1.26300
O154        O  0.05089934  0.46810335  0.28111736    -0.66200
O155        O  0.95196873  0.50397150  0.30455679    -0.78500
C156        C  0.00209716  0.56509405  0.29784084     0.85000
O157        O  0.98210850  0.55029395  0.28137529    -0.65600
Ni158      Ni  0.96060945  0.44514406  0.24458999     1.27400
Ni159      Ni  0.02657608  0.47183400  0.23425497     1.26100
H160        H  0.01341699  0.51974720  0.21400065     0.39500
C161        C  0.85838137  0.54991506  0.05901628    -0.22000
C162        C  0.85687881  0.53344778  0.09370946     0.10000
C163        C  0.82949234  0.52301129  0.10678359     0.10400
C164        C  0.80428420  0.52892101  0.08461900    -0.16900
C165        C  0.80559594  0.54533689  0.04983701    -0.27300
C166        C  0.83292923  0.55661729  0.03737736     0.18700
C167        C  0.88387689  0.52762908  0.11684821     0.12700
C168        C  0.82687537  0.50559696  0.14419734    -0.11700
H169        H  0.78331385  0.52056668  0.09444612     0.13000
C170        C  0.83468952  0.57378032  0.50517157    -0.22500
H171        H  0.87939197  0.55831829  0.04944115     0.08600
C172        C  0.90136642  0.50276752  0.10966199     0.04900
C173        C  0.92358378  0.49524862  0.13645357    -0.19700
C174        C  0.92848747  0.51172361  0.17083244    -0.12000
C175        C  0.91185064  0.53767275  0.17667726     0.13600
C176        C  0.88993764  0.54532211  0.14940526    -0.22500
C177        C  0.89563907  0.48348324  0.07464605    -0.05500
H178        H  0.93628638  0.47553188  0.13142795     0.15200
C179        C  0.91552240  0.55646558  0.21269434    -0.15700
H180        H  0.87628364  0.56437673  0.15462593     0.09500
H181        H  0.84930604  0.56493534  0.48190804     0.07400
H182        H  0.84677805  0.59742508  0.01270519     0.08600
H183        H  0.81323942  0.57939954  0.49191857     0.07600
H184        H  0.83438777  0.51887886  0.16951278     0.02500
H185        H  0.84055712  0.48554732  0.14209485     0.03000
H186        H  0.80388381  0.49894491  0.14999992     0.06500
H187        H  0.91117830  0.46475849  0.07337843     0.05400
H188        H  0.89806850  0.49631206  0.04716447    -0.00300
H189        H  0.87302165  0.47468729  0.07621839     0.01200
H190        H  0.93811005  0.56534604  0.21361580     0.04800
H191        H  0.91119501  0.54342905  0.23957806     0.06800
H192        H  0.90007151  0.57528864  0.21277486     0.07600
C193        C  0.82630455  0.49247204  0.43643694    -0.22000
C194        C  0.83239558  0.51054671  0.40422057     0.10000
C195        C  0.81597854  0.53641992  0.39888084     0.10400
C196        C  0.79506160  0.54447108  0.42722540    -0.16900
C197        C  0.78991768  0.52712334  0.46049447    -0.27300
C198        C  0.80494546  0.50022186  0.46434977     0.18700
C199        C  0.85769262  0.50322891  0.37847810     0.12700
C200        C  0.82122746  0.55600147  0.36406047    -0.11700
H201        H  0.78354009  0.56505825  0.42438316     0.13000
C202        C  0.79940071  0.48359794  0.00243339    -0.22500
H203        H  0.83861843  0.47235175  0.44009519     0.08600
C204        C  0.88664599  0.50858824  0.39099939     0.04900
C205        C  0.91013505  0.50175544  0.36598846    -0.19700
C206        C  0.90554421  0.48987855  0.32846765    -0.12000
C207        C  0.87640070  0.48474693  0.31569883     0.13600
C208        C  0.85283250  0.49136016  0.34105659    -0.22500
C209        C  0.89277336  0.52225610  0.43042233    -0.05500
H210        H  0.93233667  0.50582493  0.37579409     0.15200
C211        C  0.86986597  0.47351311  0.27499843    -0.15700
H212        H  0.83048974  0.48757639  0.33156381     0.09500
H213        H  0.81902749  0.48163362  0.02156298     0.07400
H214        H  0.79371901  0.46165484  0.99099043     0.08600
H215        H  0.78063447  0.49128724  0.02043264     0.07600
H216        H  0.81670086  0.54392060  0.33646227     0.02500
H217        H  0.84435705  0.56344300  0.36392707     0.03000
H218        H  0.80676251  0.57557990  0.36473700     0.06500
H219        H  0.91662714  0.52539976  0.43529998     0.05400
H220        H  0.88435125  0.50812171  0.45434284    -0.00300
H221        H  0.88192200  0.54395188  0.43207268     0.01200
H222        H  0.84590018  0.47243768  0.26938912     0.04800
H223        H  0.87892317  0.45115472  0.27139198     0.06800
H224        H  0.87965800  0.48822507  0.25265851     0.07600
C225        C  0.68641263  0.50922810  0.41841030    -0.22000
C226        C  0.68239344  0.53128764  0.39038589     0.10000
C227        C  0.69998792  0.55646783  0.39170406     0.10400
C228        C  0.72024172  0.55974386  0.42241539    -0.16900
C229        C  0.72366455  0.53806133  0.45114741    -0.27300
C230        C  0.70695187  0.51222830  0.44873689     0.18700
C231        C  0.65829807  0.52823343  0.36159685     0.12700
C232        C  0.69708375  0.57992132  0.36097144    -0.11700
H233        H  0.73275404  0.57970176  0.42473694     0.13000
C234        C  0.70967087  0.48779085  0.47817759    -0.22500
H235        H  0.67291233  0.48983816  0.41713995     0.08600
C236        C  0.66135403  0.51075169  0.32778370     0.04900
C237        C  0.63695882  0.50630151  0.30347500    -0.19700
C238        C  0.60948867  0.51882835  0.31229144    -0.12000
C239        C  0.60677433  0.53718440  0.34566953     0.13600
C240        C  0.63129958  0.54167785  0.36982048    -0.22500
C241        C  0.69022646  0.49643971  0.31779529    -0.05500
H242        H  0.63914195  0.49227028  0.27796681     0.15200
C243        C  0.57784344  0.55064656  0.35745316    -0.15700
H244        H  0.62922296  0.55498913  0.39604408     0.09500
H245        H  0.71584493  0.46732011  0.46269932     0.07400
H246        H  0.68828881  0.48458367  0.49318822     0.08600
H247        H  0.72648435  0.49194806  0.50093492     0.07600
H248        H  0.67452442  0.58913160  0.36141791     0.02500
H249        H  0.70162122  0.57052231  0.33147919     0.03000
H250        H  0.71274718  0.59800631  0.36605365     0.06500
H251        H  0.68893966  0.48370584  0.29007264     0.05400
H252        H  0.69680860  0.48132726  0.34173394    -0.00300
H253        H  0.70734385  0.51336632  0.31414804     0.01200
H254        H  0.57954641  0.56313869  0.38533996     0.04800
H255        H  0.56133429  0.53322219  0.36180651     0.06800
H256        H  0.57023021  0.56598705  0.33434883     0.07600
C257        C  0.11293475  0.48331875  0.39430338    -0.22000
C258        C  0.13132858  0.45946279  0.38629671     0.10000
C259        C  0.12584326  0.44219067  0.35270867     0.10400
C260        C  0.10284609  0.44989826  0.32699992    -0.16900
C261        C  0.08531718  0.47474434  0.33380724    -0.27300
C262        C  0.08983652  0.49099258  0.36886637     0.18700
C263        C  0.15723823  0.45393245  0.41205559     0.12700
C264        C  0.14501557  0.41624665  0.34328955    -0.11700
H265        H  0.09968379  0.43744076  0.30026433     0.13000
C266        C  0.07064176  0.51644747  0.38065575    -0.22500
H267        H  0.11689573  0.49633654  0.42036593     0.08600
C268        C  0.18453676  0.46711875  0.40417219     0.04900
C269        C  0.20902273  0.45987816  0.42730043    -0.19700
C270        C  0.20693158  0.44007214  0.45864657    -0.12000
C271        C  0.17944553  0.42719865  0.46702041     0.13600
C272        C  0.15489165  0.43451533  0.44381322    -0.22500
C273        C  0.18786710  0.48867959  0.37107883    -0.05500
H274        H  0.23007377  0.46965963  0.42078145     0.15200
C275        C  0.17546913  0.40473478  0.49884494    -0.15700
H276        H  0.13394859  0.42433924  0.44980973     0.09500
H277        H  0.08365476  0.53685344  0.38003538     0.07400
H278        H  0.06232022  0.51297729  0.41098090     0.08600
H279        H  0.05114316  0.51914427  0.36159300     0.07600
H280        H  0.14398397  0.40023730  0.36772602     0.02500
H281        H  0.16806798  0.42335592  0.33931623     0.03000
H282        H  0.13794818  0.40514439  0.31589925     0.06500
H283        H  0.21066986  0.49693343  0.36885865     0.05400
H284        H  0.17304846  0.50762602  0.37607556    -0.00300
H285        H  0.18218175  0.47817561  0.34271556     0.01200
H286        H  0.15999713  0.41325311  0.52138822     0.04800
H287        H  0.19630630  0.39871335  0.51347809     0.06800
H288        H  0.16628315  0.38449544  0.48593835     0.07600
C289        C  0.18665621  0.48870808  0.06619733    -0.22000
C290        C  0.17812615  0.47070701  0.09744340     0.10000
C291        C  0.19264714  0.44383823  0.10357246     0.10400
C292        C  0.21468960  0.43505018  0.07731022    -0.16900
C293        C  0.22218832  0.45230840  0.04483368    -0.27300
C294        C  0.20884904  0.47995726  0.04003868     0.18700
C295        C  0.15268498  0.47936094  0.12191552     0.12700
C296        C  0.18436791  0.42417671  0.13723926    -0.11700
H297        H  0.22329803  0.41237397  0.58041475     0.13000
C298        C  0.21792542  0.50077477  0.00815720    -0.22500
H299        H  0.17571706  0.50953296  0.06196962     0.08600
C300        C  0.15570353  0.49725913  0.15532883     0.04900
C301        C  0.13093704  0.50341102  0.17859957    -0.19700
C302        C  0.10333455  0.49160411  0.16952641    -0.12000
C303        C  0.10040017  0.47400977  0.13538047     0.13600
C304        C  0.12512233  0.46836366  0.11195264    -0.22500
C305        C  0.18514437  0.50932366  0.16672372    -0.05500
H306        H  0.13335612  0.51672579  0.20472089     0.15200
C307        C  0.07136982  0.46134070  0.12290643    -0.15700
H308        H  0.12314194  0.45471830  0.08605085     0.09500
H309        H  0.22473459  0.52175882  0.02156961     0.07400
H310        H  0.19913772  0.50489369  0.98815366     0.08600
H311        H  0.23672247  0.49245189  0.99067403     0.07600
H312        H  0.16105868  0.41762567  0.13448964     0.02500
H313        H  0.18746333  0.43584276  0.16551836     0.03000
H314        H  0.19802626  0.40403807  0.13782283     0.06500
H315        H  0.18376292  0.52275112  0.19385574     0.05400
H316        H  0.19370161  0.52325724  0.14265911    -0.00300
H317        H  0.20081616  0.49114238  0.17211653     0.01200
H318        H  0.07292578  0.45032919  0.09387809     0.04800
H319        H  0.05466409  0.47896179  0.12048543     0.06800
H320        H  0.06401575  0.44470675  0.14439748     0.07600
C321        C  0.32233059  0.42443997  0.10826411    -0.22000
C322        C  0.33179043  0.45342203  0.11137396     0.10000
C323        C  0.31873625  0.47504157  0.08736829     0.10400
C324        C  0.29648084  0.46714025  0.06091546    -0.16900
C325        C  0.28789037  0.43797274  0.05662117    -0.27300
C326        C  0.30066490  0.41639862  0.08103412     0.18700
C327        C  0.35721652  0.46013175  0.13712772     0.12700
C328        C  0.32959529  0.50604998  0.08768793    -0.11700
H329        H  0.29016101  0.48290462  0.53917314     0.13000
C330        C  0.29212034  0.38473278  0.07889847    -0.22500
H331        H  0.33251329  0.40783255  0.12646817     0.08600
C332        C  0.35378686  0.47313012  0.17451602     0.04900
C333        C  0.37884131  0.48104477  0.19611147    -0.19700
C334        C  0.40718117  0.47484979  0.18207982    -0.12000
C335        C  0.41044857  0.46025887  0.14569123     0.13600
C336        C  0.38547146  0.45343052  0.12343676    -0.22500
C337        C  0.32378524  0.47787260  0.19204987    -0.05500
H338        H  0.37632979  0.49185014  0.22427134     0.15200
C339        C  0.44023414  0.45232949  0.12991465    -0.15700
H340        H  0.38795370  0.44296297  0.09502903     0.09500
H341        H  0.28431042  0.37742670  0.10820057     0.07400
H342        H  0.31148554  0.37137595  0.07030530     0.08600
H343        H  0.27429193  0.38064558  0.05751562     0.07600
H344        H  0.35319550  0.50642445  0.07962935     0.02500
H345        H  0.32681035  0.51583122  0.11724458     0.03000
H346        H  0.32241172  0.51842985  0.56218195     0.06500
H347        H  0.32506237  0.48773592  0.22181969     0.05400
H348        H  0.31240590  0.45659974  0.19464511    -0.00300
H349        H  0.31050208  0.49257491  0.17325342     0.01200
H350        H  0.45074657  0.43655079  0.15022961     0.04800
H351        H  0.45399838  0.47215057  0.12728106     0.06800
H352        H  0.43886716  0.44192436  0.10050182     0.07600
C353        C  0.44927177  0.17746124  0.09109047    -0.22000
C354        C  0.47776337  0.17279163  0.10519771     0.10000
C355        C  0.50064430  0.19108593  0.09198403     0.10400
C356        C  0.49456582  0.21314280  0.06428000    -0.16900
C357        C  0.46632908  0.21674138  0.04857823    -0.27300
C358        C  0.44328383  0.19895781  0.06277361     0.18700
C359        C  0.48344501  0.14704491  0.13095383     0.12700
C360        C  0.53160357  0.18682731  0.10631401    -0.11700
H361        H  0.51230829  0.22636584  0.05292936     0.13000
C362        C  0.41250301  0.20176592  0.54823889    -0.22500
H363        H  0.43173197  0.16337233  0.10104154     0.08600
C364        C  0.47452712  0.14617371  0.17075603     0.04900
C365        C  0.48034342  0.12102069  0.19342660    -0.19700
C366        C  0.49467030  0.09664841  0.17706742    -0.12000
C367        C  0.50229431  0.09716387  0.13667350     0.13600
C368        C  0.49694540  0.12239799  0.11439738    -0.22500
C369        C  0.45940181  0.17197125  0.18942101    -0.05500
H370        H  0.47421271  0.12058809  0.22421145     0.15200
C371        C  0.51507725  0.07113435  0.11564230    -0.15700
H372        H  0.50291904  0.12267408  0.08352626     0.09500
H373        H  0.39764352  0.20662487  0.57332131     0.07400
H374        H  0.40581831  0.18081825  0.53461019     0.08600
H375        H  0.40951731  0.21927353  0.52616683     0.07600
H376        H  0.53979007  0.16488314  0.09772315     0.02500
H377        H  0.53220411  0.18888226  0.13881392     0.03000
H378        H  0.54670430  0.20328086  0.09362902     0.06500
H379        H  0.45451768  0.16801251  0.22095576     0.05400
H380        H  0.43834930  0.17645722  0.17419943    -0.00300
H381        H  0.47365000  0.19147848  0.18725962     0.01200
H382        H  0.50113821  0.06561376  0.08997981     0.04800
H383        H  0.51603304  0.05153118  0.13447842     0.06800
H384        H  0.53750917  0.07630553  0.10510905     0.07600
C385        C  0.50965649  0.39501177  0.38700868    -0.22000
C386        C  0.48909441  0.37353621  0.37764858     0.10000
C387        C  0.47376989  0.37532677  0.34170348     0.10400
C388        C  0.48031802  0.39783319  0.31505513    -0.16900
C389        C  0.50214289  0.41851290  0.32322845    -0.27300
C390        C  0.51642728  0.41749678  0.36036577     0.18700
C391        C  0.48533677  0.34817338  0.40444837     0.12700
C392        C  0.45111074  0.35290131  0.33100738    -0.11700
H393        H  0.46927702  0.39841839  0.28687485     0.13000
C394        C  0.53861067  0.44008046  0.37251664    -0.22500
H395        H  0.52108412  0.39363469  0.41487131     0.08600
C396        C  0.50333658  0.32315911  0.40083799     0.04900
C397        C  0.49736620  0.29846364  0.42385033    -0.19700
C398        C  0.47377428  0.29806443  0.45040567    -0.12000
C399        C  0.45620207  0.32344503  0.45480977     0.13600
C400        C  0.46243073  0.34829748  0.43202575    -0.22500
C401        C  0.52837787  0.32228376  0.37190476    -0.05500
H402        H  0.51079078  0.27902366  0.42045847     0.15200
C403        C  0.42985872  0.32464838  0.48150491    -0.15700
H404        H  0.44859436  0.36751597  0.43465363     0.09500
H405        H  0.55876574  0.43811230  0.35440645     0.07400
H406        H  0.54529850  0.43734236  0.40368706     0.08600
H407        H  0.52904735  0.46228598  0.36927344     0.07600
H408        H  0.43323882  0.35307405  0.35320702     0.02500
H409        H  0.46135258  0.33087644  0.33015303     0.03000
H410        H  0.44125736  0.35732704  0.30176341     0.06500
H411        H  0.54016053  0.30101394  0.37262487     0.05400
H412        H  0.54432656  0.33971637  0.37901830    -0.00300
H413        H  0.51995336  0.32570376  0.34164663     0.01200
H414        H  0.43327417  0.34152236  0.50445694     0.04800
H415        H  0.42542527  0.30359185  0.49616672     0.06800
H416        H  0.41008873  0.33046482  0.46411217     0.07600
C417        C  0.51578724  0.35001933  0.15058305    -0.22000
C418        C  0.50119001  0.35431389  0.11486795     0.10000
C419        C  0.49410184  0.38282323  0.10248558     0.10400
C420        C  0.50240781  0.40657059  0.12580024    -0.16900
C421        C  0.51642238  0.40253903  0.16217570    -0.27300
C422        C  0.52333373  0.37374936  0.17467010     0.18700
C423        C  0.49430282  0.32880335  0.08997859     0.12700
C424        C  0.47721405  0.38811812  0.06506208    -0.11700
H425        H  0.49745551  0.42848868  0.11583000     0.13000
C426        C  0.53770594  0.36763931  0.21372308    -0.22500
H427        H  0.52108530  0.32795326  0.15970611     0.08600
C428        C  0.51331970  0.32009120  0.05941296     0.04900
C429        C  0.50481383  0.29756547  0.03409203    -0.19700
C430        C  0.47754615  0.28387877  0.03818985    -0.12000
C431        C  0.45872185  0.29227320  0.06943544     0.13600
C432        C  0.46759075  0.31437481  0.09533917    -0.22500
C433        C  0.54236254  0.33492517  0.05318789    -0.05500
H434        H  0.51992519  0.29070815  0.51085302     0.15200
C435        C  0.42853872  0.27980585  0.07495629    -0.15700
H436        H  0.45299063  0.32134100  0.11876961     0.09500
H437        H  0.54013959  0.34385653  0.21920300     0.07400
H438        H  0.52419648  0.37695698  0.23790342     0.08600
H439        H  0.55998208  0.37726377  0.21431795     0.07600
H440        H  0.45546638  0.37742157  0.06704030     0.02500
H441        H  0.48936782  0.37903344  0.03953658     0.03000
H442        H  0.47357352  0.41174931  0.05963718     0.06500
H443        H  0.55592957  0.32441149  0.52898594     0.05400
H444        H  0.55606897  0.33249260  0.07993545    -0.00300
H445        H  0.53889618  0.35848615  0.04716915     0.01200
H446        H  0.42750193  0.26786705  0.10331152     0.04800
H447        H  0.42222536  0.26485039  0.05103341     0.06800
H448        H  0.41211132  0.29778444  0.07537939     0.07600
C449        C  0.53917365  0.84669597  0.31958147    -0.22000
C450        C  0.52725031  0.84388338  0.35747195     0.10000
C451        C  0.51077500  0.86727785  0.37348517     0.10400
C452        C  0.50526815  0.89217904  0.35052405    -0.16900
C453        C  0.51704137  0.89505211  0.31258154    -0.27300
C454        C  0.53449755  0.87214075  0.29706176     0.18700
C455        C  0.53438042  0.81768665  0.38166033     0.12700
C456        C  0.50010099  0.86660362  0.41546791    -0.11700
H457        H  0.49228042  0.90991843  0.36266423     0.13000
C458        C  0.54763310  0.87418147  0.25651889    -0.22500
H459        H  0.55240841  0.82902566  0.30778836     0.08600
C460        C  0.51342252  0.79591459  0.39008959     0.04900
C461        C  0.51917780  0.77544704  0.42008311    -0.19700
C462        C  0.54577569  0.77580658  0.44090596    -0.12000
C463        C  0.56806511  0.79525821  0.42864935     0.13600
C464        C  0.56191840  0.81620548  0.39969243    -0.22500
C465        C  0.48498219  0.79447579  0.36771181    -0.05500
H466        H  0.50218119  0.76033769  0.42879507     0.15200
C467        C  0.59868359  0.79527313  0.94647955    -0.15700
H468        H  0.57840839  0.83224770  0.39220981     0.09500
H469        H  0.52999100  0.87762414  0.23451859     0.07400
H470        H  0.55980360  0.85398094  0.24847433     0.08600
H471        H  0.56325087  0.89265079  0.25521529     0.07600
H472        H  0.51908561  0.86404223  0.43559541     0.02500
H473        H  0.48483770  0.84818781  0.42006125     0.03000
H474        H  0.48835496  0.88703726  0.42356959     0.06500
H475        H  0.47119472  0.77600662  0.37776759     0.05400
H476        H  0.48971881  0.79134932  0.33596398    -0.00300
H477        H  0.47216682  0.81490025  0.37149246     0.01200
H478        H  0.61504902  0.79263820  0.92250987     0.04800
H479        H  0.60216037  0.77702272  0.96733411     0.06800
H480        H  0.60284121  0.81616920  0.96197108     0.07600
C481        C  0.51603379  0.59972799  0.10912372    -0.22000
C482        C  0.53102968  0.62450913  0.12225528     0.10000
C483        C  0.54113865  0.62546160  0.16148350     0.10400
C484        C  0.53471485  0.60227048  0.18716516    -0.16900
C485        C  0.51817022  0.57819184  0.17468627    -0.27300
C486        C  0.50976936  0.57641963  0.13463719     0.18700
C487        C  0.53375624  0.65013258  0.09553177     0.12700
C488        C  0.55825907  0.65120104  0.17641461    -0.11700
H489        H  0.54136745  0.60366354  0.21768838     0.13000
C490        C  0.49455774  0.55017941  0.11760453    -0.22500
H491        H  0.50864900  0.59880002  0.07887039     0.08600
C492        C  0.55445100  0.65115810  0.06459707     0.04900
C493        C  0.55625311  0.67637389  0.04099634    -0.19700
C494        C  0.53782643  0.70054592  0.04769155    -0.12000
C495        C  0.51634443  0.69894410  0.07770970     0.13600
C496        C  0.51475944  0.67389699  0.10131670    -0.22500
C497        C  0.57514105  0.62603516  0.05729085    -0.05500
H498        H  0.57276394  0.67763080  0.01810901     0.15200
C499        C  0.49434195  0.72297605  0.08528447    -0.15700
H500        H  0.49847158  0.67286558  0.12453567     0.09500
H501        H  0.50741707  0.54179166  0.09221192     0.07400
H502        H  0.47234595  0.55654075  0.10726655     0.08600
H503        H  0.49246835  0.53194205  0.13876839     0.07600
H504        H  0.54471734  0.67134102  0.17452490     0.02500
H505        H  0.57839343  0.65396109  0.15842487     0.03000
H506        H  0.56494268  0.64826659  0.20755243     0.06500
H507        H  0.59029715  0.63056079  0.03246191     0.05400
H508        H  0.56249808  0.60613030  0.05001707    -0.00300
H509        H  0.58848833  0.62190323  0.08400485     0.01200
H510        H  0.47157570  0.71333168  0.58245508     0.04800
H511        H  0.49541006  0.74064530  0.56333321     0.06800
H512        H  0.49769909  0.73198714  0.11523040     0.07600
C513        C  0.50781026  0.61130528  0.39960931    -0.22000
C514        C  0.50683244  0.63940385  0.38346444     0.10000
C515        C  0.49904660  0.64313727  0.34370175     0.10400
C516        C  0.49337148  0.61846151  0.32050101    -0.16900
C517        C  0.49551295  0.59014837  0.33616281    -0.27300
C518        C  0.50186495  0.58660581  0.37665827     0.18700
C519        C  0.51479695  0.66448048  0.40865821     0.12700
C520        C  0.49712581  0.67312016  0.32574780    -0.11700
H521        H  0.48834483  0.62124088  0.28958516     0.13000
C522        C  0.50165213  0.55740629  0.39706961    -0.22500
H523        H  0.51327884  0.60864408  0.43042035     0.08600
C524        C  0.49466625  0.67676933  0.43557311     0.04900
C525        C  0.50383690  0.69941873  0.46034870    -0.19700
C526        C  0.53260769  0.70997785  0.45873915    -0.12000
C527        C  0.55273362  0.69773326  0.43170082     0.13600
C528        C  0.54348508  0.67524935  0.40671820    -0.22500
C529        C  0.46361557  0.66592944  0.43814056    -0.05500
H530        H  0.48868169  0.70884501  0.48144640     0.15200
C531        C  0.58447169  0.70702965  0.92979932    -0.15700
H532        H  0.55895708  0.66552185  0.38624970     0.09500
H533        H  0.48577645  0.55814566  0.42184341     0.07400
H534        H  0.52376030  0.55257058  0.40907586     0.08600
H535        H  0.49496055  0.53921524  0.37770038     0.07600
H536        H  0.51879817  0.68396369  0.32742739     0.02500
H537        H  0.48066367  0.68645184  0.34192136     0.03000
H538        H  0.49048841  0.67220432  0.29437516     0.06500
H539        H  0.45068115  0.67816709  0.46046559     0.05400
H540        H  0.46358199  0.64251103  0.44644375    -0.00300
H541        H  0.45266595  0.66859555  0.40922991     0.01200
H542        H  0.59879477  0.68777140  0.93517651     0.04800
H543        H  0.59007304  0.72377383  0.95196481     0.06800
H544        H  0.58936048  0.71595521  0.90018603     0.07600
C545        C  0.18359892  0.01464899  0.07039789    -0.22000
C546        C  0.18210049  0.03126841  0.10490359     0.10000
C547        C  0.20334814  0.05300668  0.11173430     0.10400
C548        C  0.22451512  0.05886325  0.08261321    -0.16900
C549        C  0.22528997  0.04293660  0.04735747    -0.27300
C550        C  0.20499360  0.02005524  0.04166831     0.18700
C551        C  0.15751968  0.02581354  0.13267768     0.12700
C552        C  0.20353008  0.07006643  0.14956834    -0.11700
H553        H  0.23978884  0.07660233  0.08680857     0.13000
C554        C  0.20531797  0.00094467  0.50630619    -0.22500
H555        H  0.16755928  0.99764738  0.06549872     0.08600
C556        C  0.13108781  0.04195071  0.13064055     0.04900
C557        C  0.10766791  0.03465824  0.15563588    -0.19700
C558        C  0.10971343  0.01117219  0.18211814    -0.12000
C559        C  0.13658337  0.99551312  0.18478594     0.13600
C560        C  0.15996632  0.00288776  0.15973081    -0.22500
C561        C  0.12716864  0.06615101  0.10107826    -0.05500
H562        H  0.08718670  0.04667233  0.15336297     0.15200
C563        C  0.14188307  0.97151950  0.21427465    -0.15700
H564        H  0.18032784  0.99060616  0.16127657     0.09500
H565        H  0.18418202  0.00332332  0.49043835     0.07400
H566        H  0.20807619  0.97783518  0.51543902     0.08600
H567        H  0.22330978  0.00608345  0.48557401     0.07600
H568        H  0.20631265  0.05487793  0.17471924     0.02500
H569        H  0.18259304  0.08220427  0.15317295     0.03000
H570        H  0.22174298  0.08605439  0.15032120     0.06500
H571        H  0.10502091  0.07627515  0.10308875     0.05400
H572        H  0.12999261  0.05736261  0.07088750    -0.00300
H573        H  0.14361412  0.08348173  0.10613979     0.01200
H574        H  0.14560595  0.95055999  0.19861345     0.04800
H575        H  0.12364534  0.96876311  0.23541101     0.06800
H576        H  0.16171180  0.97667851  0.23181959     0.07600
C577        C  0.35933334  0.05272100  0.43670610    -0.22000
C578        C  0.35654515  0.03519994  0.40310937     0.10000
C579        C  0.32894478  0.02341468  0.39355138     0.10400
C580        C  0.30454508  0.03022692  0.41701095    -0.16900
C581        C  0.30703418  0.04816154  0.45028673    -0.27300
C582        C  0.33484510  0.05960305  0.46029130     0.18700
C583        C  0.38245563  0.02971587  0.37758057     0.12700
C584        C  0.32525547  0.00359835  0.35856464    -0.11700
H585        H  0.28327422  0.02141589  0.40940259     0.13000
C586        C  0.33931645  0.08009004  0.49432155    -0.22500
H587        H  0.38059427  0.06171512  0.44395544     0.08600
C588        C  0.38819888  0.04715043  0.34425758     0.04900
C589        C  0.41042182  0.03869953  0.31779440    -0.19700
C590        C  0.42716872  0.01329757  0.32412095    -0.12000
C591        C  0.42313118  0.99748115  0.35959348     0.13600
C592        C  0.40039814  0.00553694  0.38535913    -0.22500
C593        C  0.37032010  0.07421280  0.33617405    -0.05500
H594        H  0.41368717  0.05115531  0.29107924     0.15200
C595        C  0.44262988  0.97235096  0.37166883    -0.15700
H596        H  0.39641954  0.99265089  0.41153973     0.09500
H597        H  0.34950786  0.10056212  0.48362782     0.07400
H598        H  0.35413277  0.06974432  0.51620081     0.08600
H599        H  0.31851995  0.08619147  0.50908138     0.07600
H600        H  0.33945974  0.98401527  0.36199978     0.02500
H601        H  0.33148125  0.01523812  0.33122770     0.03000
H602        H  0.30223492  0.99615641  0.35540865     0.06500
H603        H  0.37768853  0.08542573  0.30898869     0.05400
H604        H  0.37252298  0.08968373  0.36110775    -0.00300
H605        H  0.34686487  0.06846297  0.33259143     0.01200
H606        H  0.45119033  0.97638085  0.40171963     0.04800
H607        H  0.46201621  0.96954520  0.35234809     0.06800
H608        H  0.42980742  0.95182663  0.37188990     0.07600
C609        C  0.32788263  0.99521462  0.05433860    -0.22000
C610        C  0.33757653  0.01246642  0.08570594     0.10000
C611        C  0.32354839  0.03931746  0.09379054     0.10400
C612        C  0.30092482  0.04896455  0.06916668    -0.16900
C613        C  0.29220915  0.03252683  0.03653779    -0.27300
C614        C  0.30512194  0.00487531  0.02975217     0.18700
C615        C  0.36352965  0.00321180  0.10859033     0.12700
C616        C  0.33299816  0.05810839  0.12780965    -0.11700
H617        H  0.29079586  0.07001312  0.57426254     0.13000
C618        C  0.29531080  0.98519500  0.99698127    -0.22500
H619        H  0.33846905  0.97440086  0.04860705     0.08600
C620        C  0.36104289  0.98472588  0.14143385     0.04900
C621        C  0.38562986  0.98003811  0.16538216    -0.19700
C622        C  0.41262483  0.99362499  0.15739444    -0.12000
C623        C  0.41534180  0.01102235  0.12308062     0.13600
C624        C  0.39070465  0.01544669  0.09910419    -0.22500
C625        C  0.33227873  0.97061241  0.15169580    -0.05500
H626        H  0.38340627  0.96649897  0.19131836     0.15200
C627        C  0.44396635  0.02484012  0.11112999    -0.15700
H628        H  0.39231109  0.02940644  0.07346962     0.09500
H629        H  0.28824404  0.96395482  0.00937777     0.07400
H630        H  0.31380642  0.98135579  0.97631278     0.08600
H631        H  0.27656444  0.99440263  0.98033885     0.07600
H632        H  0.35624611  0.06460706  0.12401213     0.02500
H633        H  0.33066148  0.04576739  0.15570537     0.03000
H634        H  0.31952974  0.07830446  0.13010276     0.06500
H635        H  0.33406574  0.95690642  0.17851549     0.05400
H636        H  0.32512155  0.95646154  0.12705344    -0.00300
H637        H  0.31534309  0.98765198  0.15707222    -0.06400
H638        H  0.44235673  0.03559975  0.08195285     0.04800
H639        H  0.46142591  0.00791032  0.10923013     0.06800
H640        H  0.45029991  0.04186967  0.13264086     0.07600
C641        C  0.81196374  0.99100240  0.39435969    -0.22000
C642        C  0.83030174  0.96811620  0.38186640     0.10000
C643        C  0.82763864  0.94044006  0.39964504     0.10400
C644        C  0.80708122  0.93646091  0.42995875    -0.16900
C645        C  0.78979202  0.95970381  0.44404891    -0.27300
C646        C  0.79230169  0.98741859  0.42590187     0.18700
C647        C  0.85553561  0.97495909  0.35575425     0.12700
C648        C  0.84776096  0.91558987  0.38840068    -0.11700
H649        H  0.80563990  0.91541231  0.44434708     0.13000
C650        C  0.77682206  0.01430016  0.44103797    -0.22500
H651        H  0.81463316  0.01243950  0.38138902     0.08600
C652        C  0.85514606  0.96999818  0.31477858     0.04900
C653        C  0.88032351  0.97634125  0.29228782    -0.19700
C654        C  0.90552413  0.98808112  0.30985024    -0.12000
C655        C  0.90578560  0.99297633  0.35092730     0.13600
C656        C  0.88078704  0.98643953  0.37320546    -0.22500
C657        C  0.82802044  0.95878452  0.29476795    -0.05500
H658        H  0.88011772  0.97279637  0.26078586     0.15200
C659        C  0.93222081  0.00441330  0.37252465    -0.15700
H660        H  0.88108024  0.99006592  0.40471035     0.09500
H661        H  0.76140327  0.02256997  0.41835152     0.07400
H662        H  0.79321127  0.03148122  0.44750519     0.08600
H663        H  0.76453276  0.01044983  0.46855815     0.07600
H664        H  0.87091040  0.92182093  0.39377261     0.02500
H665        H  0.84501593  0.91016802  0.35687440     0.03000
H666        H  0.84312517  0.89561824  0.40576581     0.06500
H667        H  0.83130394  0.95649322  0.26255287     0.05400
H668        H  0.80953980  0.97421466  0.29981132    -0.00300
H669        H  0.82203707  0.93710799  0.30668736     0.01200
H670        H  0.92671222  0.02571724  0.38630300     0.04800
H671        H  0.95164781  0.00740974  0.35338950     0.06800
H672        H  0.93853728  0.98878321  0.39599834     0.07600
C673        C  0.61088638  0.98303416  0.10767204    -0.22000
C674        C  0.63433730  0.96560786  0.12038968     0.10000
C675        C  0.63378491  0.95365613  0.15864209     0.10400
C676        C  0.61026897  0.96041217  0.18391407    -0.16900
C677        C  0.58761668  0.97926965  0.17196690    -0.27300
C678        C  0.58741578  0.98980832  0.13286162     0.18700
C679        C  0.66055287  0.96275307  0.09473026     0.12700
C680        C  0.65862076  0.93481695  0.17328788    -0.11700
H681        H  0.61053358  0.95245285  0.21392209     0.13000
C682        C  0.56276275  0.00818874  0.11685647    -0.22500
H683        H  0.61125067  0.99199606  0.07817932     0.08600
C684        C  0.66362349  0.94017550  0.06676112     0.04900
C685        C  0.68936927  0.93848800  0.04389629    -0.19700
C686        C  0.71196529  0.95889563  0.04858068    -0.12000
C687        C  0.70832310  0.98204758  0.07572094     0.13600
C688        C  0.68274319  0.98356132  0.09853458    -0.22500
C689        C  0.63989343  0.91782234  0.06145619    -0.05500
H690        H  0.69219068  0.92084900  0.02296834     0.15200
C691        C  0.73072436  0.00580703  0.08102174    -0.15700
H692        H  0.68007543  0.00115494  0.11959642     0.09500
H693        H  0.55406876  0.99800115  0.08967821     0.07400
H694        H  0.57098372  0.03032407  0.10973283     0.08600
H695        H  0.54424350  0.01004072  0.13779662     0.07600
H696        H  0.67940909  0.94730722  0.17259895     0.02500
H697        H  0.66092647  0.91522382  0.15433580     0.03000
H698        H  0.65484171  0.92739079  0.20394658     0.06500
H699        H  0.64576759  0.90158647  0.03847074     0.05400
H700        H  0.61918870  0.92882177  0.05257780    -0.00300
H701        H  0.63622935  0.90596720  0.08946284     0.01200
H702        H  0.72023384  0.02734501  0.07554435     0.04800
H703        H  0.74958794  0.00386631  0.06061720     0.06800
H704        H  0.73915201  0.00532190  0.11161499     0.07600
C705        C  0.69232687  0.95517504  0.40265507    -0.22000
C706        C  0.67604722  0.98084678  0.40835580     0.10000
C707        C  0.68274434  0.99941586  0.44009718     0.10400
C708        C  0.70580140  0.99192328  0.46542375    -0.16900
C709        C  0.72207320  0.96614756  0.45997082    -0.27300
C710        C  0.71495995  0.94730593  0.42850868     0.18700
C711        C  0.65090847  0.98697911  0.38216033     0.12700
C712        C  0.66529869  0.02688246  0.44745685    -0.11700
H713        H  0.71104391  0.00652301  0.98959776     0.13000
C714        C  0.72961051  0.91810662  0.42260485    -0.22500
H715        H  0.68666993  0.94071347  0.37862787     0.08600
C716        C  0.65423989  0.00283740  0.34701064     0.04900
C717        C  0.62955837  0.00832459  0.32347546    -0.19700
C718        C  0.60169564  0.99766089  0.33379891    -0.12000
C719        C  0.59857952  0.98145532  0.36915964     0.13600
C720        C  0.62324597  0.97659918  0.39295451    -0.22500
C721        C  0.68391047  0.01359524  0.33420163    -0.05500
H722        H  0.63223020  0.02032810  0.29627251     0.15200
C723        C  0.56944223  0.96956842  0.38263351    -0.15700
H724        H  0.62106310  0.96441194  0.42010556     0.09500
H725        H  0.74144484  0.91795375  0.39405920     0.07400
H726        H  0.71272157  0.90074007  0.42225733     0.08600
H727        H  0.74530686  0.91252054  0.44623410     0.07600
H728        H  0.64193955  0.02134475  0.45266733     0.02500
H729        H  0.66685807  0.04152605  0.42156956     0.03000
H730        H  0.67356669  0.03945666  0.97284231     0.06500
H731        H  0.68273199  0.02558041  0.30587596     0.05400
H732        H  0.69909403  0.99478017  0.33036234    -0.00300
H733        H  0.69295773  0.02853988  0.35675932     0.01200
H734        H  0.56184272  0.95232697  0.36218708     0.04800
H735        H  0.55296460  0.98745968  0.38417127     0.06800
H736        H  0.57095494  0.95951172  0.41226954     0.07600
C737        C  0.05505773  0.11985200  0.34056251    -0.22000
C738        C  0.03845715  0.12362002  0.37492917     0.10000
C739        C  0.01439901  0.10514911  0.38213885     0.10400
C740        C  0.00688397  0.08389359  0.35414937    -0.16900
C741        C  0.02275942  0.08072748  0.31889254    -0.27300
C742        C  0.04749893  0.09874159  0.31233320     0.18700
C743        C  0.04393805  0.14970092  0.39975274     0.12700
C744        C  0.99605525  0.10859307  0.41874591    -0.11700
H745        H  0.98792741  0.07022594  0.35928123     0.13000
C746        C  0.06485741  0.09726495  0.27460304    -0.22500
H747        H  0.07322512  0.13445460  0.33500624     0.08600
C748        C  0.06348834  0.14941029  0.43189283     0.04900
C749        C  0.06818747  0.17533201  0.45321749    -0.19700
C750        C  0.05365514  0.20140000  0.44311354    -0.12000
C751        C  0.03324149  0.20122562  0.41178279     0.13600
C752        C  0.02903475  0.17552742  0.39023617    -0.22500
C753        C  0.07956125  0.12192867  0.44329183    -0.05500
H754        H  0.08367366  0.17541817  0.47735609     0.15200
C755        C  0.01478954  0.22738456  0.40084379    -0.15700
H756        H  0.01368326  0.17553305  0.36591093     0.09500
H757        H  0.07553175  0.07555139  0.27173968     0.07400
H758        H  0.08240933  0.11396651  0.27370082     0.08600
H759        H  0.05013678  0.10112903  0.24912161     0.07600
H760        H  0.98620553  0.13078883  0.41968458     0.02500
H761        H  0.00992882  0.10537574  0.44517493     0.03000
H762        H  0.97797546  0.09246741  0.41981682     0.06500
H763        H  0.09405076  0.12547832  0.46905407     0.05400
H764        H  0.09331416  0.11429805  0.41832987    -0.00300
H765        H  0.06361034  0.10465672  0.45105569     0.01200
H766        H  0.02038210  0.23447569  0.37055672     0.04800
H767        H  0.01756141  0.24611752  0.42101462     0.06800
H768        H  0.99124418  0.22134229  0.40180054     0.07600
C769        C  0.00311702  0.14609059  0.13891570    -0.22000
C770        C  0.01951596  0.14075381  0.10486940     0.10000
C771        C  0.02901530  0.11213231  0.09617949     0.10400
C772        C  0.02206047  0.08937251  0.12215874    -0.16900
C773        C  0.00576069  0.09457311  0.15664885    -0.27300
C774        C  0.99618335  0.12345254  0.16507602     0.18700
C775        C  0.02821289  0.16580725  0.08011296     0.12700
C776        C  0.04670469  0.10574450  0.05966907    -0.11700
H777        H  0.02958279  0.06741907  0.11562680     0.13000
C778        C  0.97999533  0.13102538  0.20244338    -0.22500
H779        H  0.99629275  0.16827120  0.14544063     0.08600
C780        C  0.00992461  0.17675512  0.05010147     0.04900
C781        C  0.01985061  0.19990813  0.02668196    -0.19700
C782        C  0.04777635  0.21196141  0.03227539    -0.12000
C783        C  0.06603330  0.20090108  0.06239680     0.13600
C784        C  0.05575233  0.17833110  0.08642664    -0.22500
C785        C  0.98031856  0.16359069  0.04233328    -0.05500
H786        H  0.00617444  0.20824415  0.00316539     0.15200
C787        C  0.09606136  0.21218222  0.56732291    -0.15700
H788        H  0.06977359  0.16965969  0.10939296     0.09500
H789        H  0.95823206  0.12032324  0.20277669     0.07400
H790        H  0.97613612  0.15489091  0.20521152     0.08600
H791        H  0.99301755  0.12389124  0.22831574     0.07600
H792        H  0.06753464  0.11816345  0.06035615     0.02500
H793        H  0.03402097  0.11220893  0.03320023     0.03000
H794        H  0.05224136  0.08218763  0.05712888     0.06500
H795        H  0.96895339  0.17459192  0.01752603     0.05400
H796        H  0.96631867  0.16569667  0.06891813    -0.00300
H797        H  0.98290163  0.14013936  0.03481207     0.01200
H798        H  0.09889105  0.22122535  0.09820760     0.04800
H799        H  0.10317227  0.22797776  0.54474177     0.06800
H800        H  0.11139322  0.19330271  0.56579193     0.07600
C801        C  0.02276817  0.36780394  0.11730277    -0.22000
C802        C  0.03823237  0.34425477  0.13365060     0.10000
C803        C  0.04623058  0.34529682  0.17371004     0.10400
C804        C  0.03791577  0.36957997  0.19673159    -0.16900
C805        C  0.02178516  0.39288535  0.18059047    -0.27300
C806        C  0.01477236  0.39222622  0.13996483     0.18700
C807        C  0.04649381  0.31938585  0.10751971     0.12700
C808        C  0.06307922  0.32056374  0.19223175    -0.11700
H809        H  0.04355064  0.37013082  0.22765866     0.13000
C810        C  0.00000329  0.41727423  0.11892343    -0.22500
H811        H  0.01728842  0.36732145  0.08629618     0.08600
C812        C  0.02569875  0.29856571  0.09516023     0.04900
C813        C  0.03334978  0.27815451  0.06587567    -0.19700
C814        C  0.06142620  0.27794774  0.04880693    -0.12000
C815        C  0.08294059  0.29725247  0.06372738     0.13600
C816        C  0.07506691  0.31795828  0.09239751    -0.22500
C817        C  0.99525979  0.29830504  0.11235427    -0.05500
H818        H  0.01678780  0.26347636  0.05469699     0.15200
C819        C  0.11443108  0.29665629  0.05017310    -0.15700
H820        H  0.09121299  0.33356869  0.10240585     0.09500
H821        H  0.97847032  0.41008242  0.10733283     0.07400
H822        H  0.01394585  0.42429771  0.09388744     0.08600
H823        H  0.99649887  0.43670374  0.13771668     0.07600
H824        H  0.08463296  0.31794304  0.17740452     0.02500
H825        H  0.05048426  0.30000940  0.18931039     0.03000
H826        H  0.06712690  0.32452491  0.22396670     0.06500
H827        H  0.98186173  0.28033769  0.10000079     0.05400
H828        H  0.98391141  0.31924764  0.10596858    -0.00300
H829        H  0.99659459  0.29524227  0.14467898     0.01200
H830        H  0.11842947  0.31830127  0.53353324     0.04800
H831        H  0.11779007  0.27924726  0.52726476     0.06800
H832        H  0.12901953  0.29371986  0.07599365     0.07600
C833        C  0.95410661  0.84987642  0.05461974    -0.22000
C834        C  0.97406226  0.84939535  0.08595509     0.10000
C835        C  0.98929089  0.82330692  0.09466019     0.10400
C836        C  0.98404378  0.79823457  0.07213882    -0.16900
C837        C  0.96357382  0.79828107  0.04134481    -0.27300
C838        C  0.94827285  0.82450745  0.03258274     0.18700
C839        C  0.97787923  0.87566582  0.11109184     0.12700
C840        C  0.01075871  0.82179629  0.12826439    -0.11700
H841        H  0.99566097  0.77819152  0.07908314     0.13000
C842        C  0.92505026  0.82561227  0.50256810    -0.22500
H843        H  0.94221108  0.86986977  0.04827819     0.08600
C844        C  0.00055437  0.89578568  0.10410562     0.04900
C845        C  0.00717875  0.91675885  0.13289220    -0.19700
C846        C  0.99149043  0.91829760  0.16850705    -0.12000
C847        C  0.96761789  0.89894427  0.17449182     0.13600
C848        C  0.96102288  0.87817769  0.14541677    -0.22500
C849        C  0.01813899  0.89461612  0.06663173    -0.05500
H850        H  0.02525717  0.93159871  0.12800411     0.15200
C851        C  0.94977332  0.89770320  0.21189077    -0.15700
H852        H  0.94366882  0.86255424  0.15067444     0.09500
H853        H  0.90450207  0.83409829  0.51601855     0.07400
H854        H  0.91992485  0.80408548  0.48970011     0.08600
H855        H  0.93197259  0.84062619  0.47871969     0.07600
H856        H  0.99938284  0.82699243  0.15630312     0.02500
H857        H  0.02868245  0.83770387  0.12349718     0.03000
H858        H  0.02076009  0.79974754  0.13108967     0.06500
H859        H  0.03505675  0.91194859  0.06568329     0.05400
H860        H  0.00330459  0.89768178  0.04109299    -0.00300
H861        H  0.02937586  0.87316086  0.06396902     0.01200
H862        H  0.92659288  0.90338379  0.20528724     0.04800
H863        H  0.95756332  0.91225420  0.23546759     0.06800
H864        H  0.95056358  0.87520088  0.22396249     0.07600
C865        C  0.96354620  0.81215185  0.39598328    -0.22000
C866        C  0.98949300  0.82776516  0.40205626     0.10000
C867        C  0.00789634  0.82027128  0.43386544     0.10400
C868        C  0.99959595  0.79764447  0.45930871    -0.16900
C869        C  0.97316847  0.78261146  0.45404585    -0.27300
C870        C  0.95495452  0.78989061  0.42180154     0.18700
C871        C  0.99562715  0.85337847  0.37669006     0.12700
C872        C  0.03570715  0.83682576  0.44179548    -0.11700
H873        H  0.01326414  0.79220805  0.48430123     0.13000
C874        C  0.92450747  0.77705880  0.91471286    -0.22500
H875        H  0.94928365  0.81821669  0.37181631     0.08600
C876        C  0.01656540  0.85258399  0.34612252     0.04900
C877        C  0.02155675  0.87782013  0.32377916    -0.19700
C878        C  0.00554270  0.90379267  0.33015551    -0.12000
C879        C  0.98405594  0.90424815  0.36052798     0.13600
C880        C  0.97967671  0.87911984  0.38347350    -0.22500
C881        C  0.03349906  0.82533170  0.33561346    -0.05500
H882        H  0.03761796  0.87679389  0.30028409     0.15200
C883        C  0.96578713  0.93096470  0.36961663    -0.15700
H884        H  0.96350896  0.87943093  0.40688767     0.09500
H885        H  0.90747554  0.79446392  0.91383487     0.07400
H886        H  0.91819490  0.76173764  0.93831020     0.08600
H887        H  0.92446381  0.76520561  0.88625002     0.07600
H888        H  0.03052608  0.86026877  0.44649409     0.02500
H889        H  0.05091631  0.83460004  0.41648551     0.03000
H890        H  0.04714919  0.82853913  0.46837330     0.06500
H891        H  0.05734713  0.82939739  0.33895283     0.05400
H892        H  0.02898351  0.81940219  0.30456394    -0.00300
H893        H  0.02765239  0.80636510  0.35418968     0.01200
H894        H  0.95108839  0.93608365  0.34455222     0.04800
H895        H  0.98029728  0.94979047  0.37578195     0.06800
H896        H  0.95156895  0.92769097  0.39577664     0.07600
C897        C  0.97533557  0.61391066  0.38161824    -0.22000
C898        C  0.98214526  0.64177209  0.36711833     0.10000
C899        C  0.99481016  0.64423897  0.32934888     0.10400
C900        C  0.00078884  0.61885605  0.30728592    -0.16900
C901        C  0.99401019  0.59100666  0.32178656    -0.27300
C902        C  0.98100754  0.58853556  0.35947462     0.18700
C903        C  0.97628320  0.66788934  0.39236017     0.12700
C904        C  0.00158897  0.67369027  0.31209206    -0.11700
H905        H  0.01078562  0.62074036  0.27847677     0.13000
C906        C  0.97350564  0.55954514  0.37771075    -0.22500
H907        H  0.96577658  0.61192115  0.41069630     0.08600
C908        C  0.94746733  0.67791658  0.39990147     0.04900
C909        C  0.94287374  0.70083189  0.42681612    -0.19700
C910        C  0.96639612  0.71446893  0.44595445    -0.12000
C911        C  0.99535106  0.70516521  0.43723719     0.13600
C912        C  0.99989458  0.68207296  0.41054003    -0.22500
C913        C  0.92152248  0.66428563  0.37978471    -0.05500
H914        H  0.92065874  0.70739815  0.43413209     0.15200
C915        C  0.02069907  0.71820915  0.95599135    -0.15700
H916        H  0.02203733  0.67439443  0.40488848     0.09500
H917        H  0.94959593  0.55878962  0.38383628     0.07400
H918        H  0.98558152  0.55696257  0.40582392     0.08600
H919        H  0.97925482  0.54072509  0.35872347     0.07600
H920        H  0.01799003  0.68506743  0.33054755     0.02500
H921        H  0.98121961  0.68704107  0.31070863     0.03000
H922        H  0.01066158  0.67182366  0.28187624     0.06500
H923        H  0.90063532  0.67523052  0.38816237     0.05400
H924        H  0.91983948  0.64092678  0.38797949    -0.00300
H925        H  0.92413911  0.66611215  0.34742529     0.01200
H926        H  0.03261177  0.70071274  0.97204634     0.04800
H927        H  0.01531310  0.73569112  0.97730950     0.06800
H928        H  0.03547695  0.72752647  0.93332441     0.07600
N929        N  0.96284279  0.76306315  0.98334846    -0.03000
C930        C  0.95870714  0.73376946  0.97997573    -0.00400
C931        C  0.95093071  0.72168342  0.51618254    -0.23300
C932        C  0.95017224  0.74441258  0.54261209    -0.23500
C933        C  0.95815996  0.76925553  0.52227377    -0.00500
H934        H  0.94688097  0.69894036  0.52265970     0.13300
H935        H  0.94540037  0.74282037  0.57370539     0.13300
N936        N  0.05697171  0.23361115  0.50331792    -0.03000
C937        C  0.06463662  0.26179686  0.51011381    -0.00400
C938        C  0.07581382  0.27402643  0.97708993    -0.23300
C939        C  0.07381275  0.25315334  0.94808089    -0.23500
C940        C  0.06256242  0.22842668  0.96564471    -0.00500
H941        H  0.08256611  0.29643227  0.97308698     0.13300
H942        H  0.07902292  0.25600088  0.91728184     0.13300
N943        N  0.74429758  0.95910822  0.98815707    -0.03000
C944        C  0.77354497  0.95570060  0.98174526    -0.00400
C945        C  0.78755719  0.94745019  0.51624543    -0.23300
C946        C  0.76634717  0.94703597  0.54510488    -0.23500
C947        C  0.74018283  0.95429363  0.52708694    -0.00500
H948        H  0.81076646  0.94343944  0.52029026     0.13300
H949        H  0.76973378  0.94268712  0.57602979     0.13300
N950        N  0.27252459  0.04573400  0.50875197    -0.03000
C951        C  0.24406939  0.05328404  0.51476620    -0.00400
C952        C  0.23302156  0.06698906  0.98170374    -0.23300
C953        C  0.25551639  0.06825506  0.95468716    -0.23500
C954        C  0.27969347  0.05529555  0.97202241    -0.00500
H955        H  0.21057700  0.07395013  0.97707497     0.13300
H956        H  0.25405761  0.07656620  0.92498435     0.13300
N957        N  0.54152030  0.73199926  0.98656551    -0.03000
C958        C  0.54806840  0.76040937  0.97946713    -0.00400
C959        C  0.55402422  0.77432064  0.51431334    -0.23300
C960        C  0.55135069  0.75394374  0.54382490    -0.23500
C961        C  0.54334078  0.72809688  0.52600710    -0.00500
H962        H  0.55919713  0.79716918  0.51809280     0.13300
H963        H  0.55445655  0.75766478  0.57494821     0.13300
N964        N  0.46898332  0.26390969  0.50886380    -0.03000
C965        C  0.46317409  0.23499881  0.51288112    -0.00400
C966        C  0.45701415  0.22235785  0.97612940    -0.23300
C967        C  0.45941832  0.24433714  0.94879033    -0.23500
C968        C  0.46646497  0.26936789  0.96923785    -0.00500
H969        H  0.45276943  0.19959206  0.97002886     0.13300
H970        H  0.45713376  0.24214330  0.91727463     0.13300
N971        N  0.24158221  0.43985038  0.51711181    -0.03000
C972        C  0.26939701  0.43034898  0.52322063    -0.00400
C973        C  0.28013953  0.41668770  0.98904890    -0.23300
C974        C  0.25817926  0.41791240  0.96125094    -0.23500
C975        C  0.23468160  0.43216737  0.97855215    -0.00500
H976        H  0.30197254  0.40781323  0.98494895     0.13300
H977        H  0.25938827  0.40975313  0.93143894     0.13300
N978        N  0.77098046  0.54214478  0.99156573    -0.03000
C979        C  0.74228745  0.54885628  0.98615242    -0.00400
C980        C  0.72990086  0.55498680  0.52082419    -0.23300
C981        C  0.75240257  0.55509139  0.54771664    -0.23500
C982        C  0.77712955  0.54484230  0.52840469    -0.00500
H983        H  0.70725214  0.56089326  0.52632565     0.13300
H984        H  0.75075885  0.56123674  0.57836107     0.13300
O985        O  0.58334365  0.48253611  0.78026067    -0.80400
O986        O  0.45308209  0.46738251  0.71627843    -0.65100
O987        O  0.53304149  0.48874264  0.73250048    -1.11700
C988        C  0.49380410  0.56535455  0.80868433     1.06500
O989        O  0.43571094  0.51260925  0.71028322    -0.78300
O990        O  0.48083580  0.55102792  0.70474418    -0.65900
Ni991      Ni  0.56083595  0.45839024  0.74546373     1.34900
C992        C  0.50793767  0.55732508  0.70503832     0.85200
O993        O  0.50263005  0.44867314  0.68626917    -0.78900
O994        O  0.54328231  0.42953987  0.71158177    -0.89100
C995        C  0.43364751  0.48522975  0.70458438     0.84800
O996        O  0.53903495  0.44468716  0.78919864    -0.67300
O997        O  0.47348477  0.56527750  0.78297209    -0.86600
C998        C  0.51199416  0.43862793  0.79154841     0.85600
C999        C  0.52166855  0.42853831  0.68812514     1.07200
H1000       H  0.47652945  0.49791705  0.78604869     0.39000
O1001       O  0.48412243  0.50673797  0.76242357    -1.09300
O1002       O  0.52551265  0.54802182  0.73148048    -0.65900
Ni1003     Ni  0.52388033  0.51770587  0.77160553     1.26300
O1004       O  0.49314344  0.44783746  0.76648215    -0.66200
O1005       O  0.51345446  0.54569867  0.81054888    -0.78500
C1006       C  0.58416032  0.50919376  0.79038516     0.85000
O1007       O  0.56381341  0.52709010  0.78211242    -0.65600
Ni1008     Ni  0.45709301  0.53698477  0.74687521     1.27400
Ni1009     Ni  0.49316916  0.47720218  0.72470005     1.26100
H1010       H  0.53987803  0.49812954  0.70873009     0.39500
O1011       O  0.48324952  0.93030879  0.78840923    -0.80400
O1012       O  0.48280345  0.05697263  0.71911351    -0.65100
O1013       O  0.49400058  0.97476757  0.73196624    -1.11700
C1014       C  0.57700472  0.00283211  0.80599451     1.06500
O1015       O  0.52979970  0.06460289  0.70564089    -0.78300
O1016       O  0.56730079  0.01891428  0.70629016    -0.65900
Ni1017     Ni  0.46220214  0.94989013  0.74650969     1.34900
C1018       C  0.56791636  0.99138953  0.70227968     0.85200
O1019       O  0.45481645  0.01074935  0.69113869    -0.78900
O1020       O  0.43790885  0.96614820  0.70565506    -0.89100
C1021       C  0.50281528  0.07168339  0.70258150     0.84800
O1022       O  0.44488074  0.97481315  0.78494236    -0.67300
O1023       O  0.57679318  0.02618270  0.78539310    -0.86600
C1024       C  0.44573834  0.00204544  0.79149140     0.85600
C1025       C  0.43684747  0.98992662  0.68616187     1.07200
H1026       H  0.51261798  0.02672522  0.78608246     0.39000
O1027       O  0.51954225  0.01930853  0.76113383    -1.09300
O1028       O  0.55366990  0.97398605  0.72430035    -0.65900
Ni1029     Ni  0.52609122  0.97827927  0.76735134     1.26300
O1030       O  0.46054259  0.01971486  0.77051188    -0.66200
O1031       O  0.55770099  0.98309168  0.80297704    -0.78500
C1032       C  0.50989213  0.92200843  0.78986451     0.85000
O1033       O  0.53011247  0.93698274  0.77427526    -0.65600
Ni1034     Ni  0.55154754  0.04373654  0.74605408     1.27400
Ni1035     Ni  0.48705177  0.01572829  0.72618672     1.26100
H1036       H  0.50123614  0.96759984  0.70704978     0.39500
O1037       O  0.93813525  0.02340862  0.78326298    -0.80400
O1038       O  0.06650833  0.02363345  0.71862567    -0.65100
O1039       O  0.98400559  0.01331403  0.72833664    -1.11700
C1040       C  0.01090240  0.92957875  0.80309817     1.06500
O1041       O  0.07532474  0.97686413  0.70631914    -0.78300
O1042       O  0.02997471  0.93842098  0.70604341    -0.65900
Ni1043     Ni  0.95896801  0.04511069  0.74312685     1.34900
C1044       C  0.00252884  0.93850080  0.69954654     0.85200
O1045       O  0.02086538  0.05169464  0.68821218    -0.78900
O1046       O  0.97660462  0.07001620  0.70396104    -0.89100
C1047       C  0.08268182  0.00364350  0.70450424     0.84800
O1048       O  0.98314630  0.06144121  0.78317968    -0.67300
O1049       O  0.03558650  0.93076430  0.78531332    -0.86600
C1050       C  0.01072023  0.06167531  0.78822819     0.85600
C1051       C  0.00064713  0.07082204  0.68468693     1.07200
H1052       H  0.03448224  0.99446706  0.78451689     0.39000
O1053       O  0.02807140  0.98738894  0.75921575    -1.09300
O1054       O  0.98442597  0.95439937  0.71863155    -0.65900
Ni1055     Ni  0.98684754  0.98075248  0.76297388     1.26300
O1056       O  0.02838951  0.04660534  0.76737065    -0.66200
O1057       O  0.99061808  0.94831207  0.79784749    -0.78500
C1058       C  0.93060173  0.99670315  0.78480308     0.85000
O1059       O  0.94533348  0.97691818  0.76767673    -0.65600
Ni1060     Ni  0.05362912  0.95550219  0.74615917     1.27400
Ni1061     Ni  0.02514358  0.01967081  0.72379942     1.26100
H1062       H  0.97714052  0.00664618  0.70304730     0.39500
O1063       O  0.02846665  0.55849591  0.79544741    -0.80400
O1064       O  0.03037657  0.43059465  0.72724285    -0.65100
O1065       O  0.01919746  0.51273369  0.74022333    -1.11700
C1066       C  0.93261693  0.48378219  0.80716839     1.06500
O1067       O  0.98436682  0.42422768  0.70826397    -0.78300
O1068       O  0.94622019  0.46966974  0.70881530    -0.65900
Ni1069     Ni  0.05077622  0.53775660  0.75536184     1.34900
C1070       C  0.94567647  0.49726454  0.70579809     0.85200
O1071       O  0.05954712  0.47633939  0.70167561    -0.78900
O1072       O  0.07657996  0.52081315  0.71616023    -0.89100
C1073       C  0.01140184  0.41692645  0.70729870     0.84800
O1074       O  0.06688918  0.51304187  0.79496654    -0.67300
O1075       O  0.93393193  0.46058736  0.78633894    -0.86600
C1076       C  0.06612918  0.48576129  0.80149661     0.85600
C1077       C  0.07796411  0.49673290  0.69730943     1.07200
H1078       H  0.99801509  0.46015910  0.79192086     0.39000
O1079       O  0.99222162  0.46801559  0.76674006    -1.09300
O1080       O  0.96011802  0.51406014  0.72845726    -0.65900
Ni1081     Ni  0.98562836  0.50885987  0.77358424     1.26300
O1082       O  0.05137783  0.46797055  0.78045077    -0.66200
O1083       O  0.95222490  0.50347724  0.80655366    -0.78500
C1084       C  0.00137369  0.56523655  0.79814933     0.85000
O1085       O  0.98151501  0.54993040  0.78226729    -0.65600
Ni1086     Ni  0.96087778  0.44397347  0.74818547     1.27400
Ni1087     Ni  0.02618000  0.47175987  0.73452814     1.26100
H1088       H  0.01275480  0.51980468  0.71491149     0.39500
C1089       C  0.85756440  0.54583195  0.56023639    -0.22000
C1090       C  0.85636621  0.52777315  0.59349141     0.10000
C1091       C  0.82953204  0.51472378  0.60410712     0.10400
C1092       C  0.80441860  0.52041360  0.58166898    -0.16900
C1093       C  0.80531003  0.53885338  0.54876279    -0.27300
C1094       C  0.83221550  0.55197108  0.53806689     0.18700
C1095       C  0.88281729  0.52367362  0.61836946     0.12700
C1096       C  0.82736871  0.49478946  0.63922574    -0.11700
H1097       H  0.78379074  0.51047028  0.58996501     0.13000
C1098       C  0.83584520  0.57706962  0.00300769    -0.22500
H1099       H  0.87815363  0.55604424  0.55241238     0.08600
C1100       C  0.90376918  0.50181099  0.61015520     0.04900
C1101       C  0.92545899  0.49532683  0.63820486    -0.19700
C1102       C  0.92635729  0.50974549  0.67478871    -0.12000
C1103       C  0.90576550  0.53251165  0.68226161     0.13600
C1104       C  0.88480510  0.53951290  0.65348005    -0.22500
C1105       C  0.90235773  0.48446933  0.57259185    -0.05500
H1106       H  0.94100039  0.47787021  0.63230138     0.15200
C1107       C  0.90310462  0.54845840  0.72096670    -0.15700
H1108       H  0.86843001  0.55615241  0.65969360     0.09500
H1109       H  0.84935261  0.56661228  0.97976416     0.07400
H1110       H  0.84418349  0.59435577  0.51661953     0.08600
H1111       H  0.81440208  0.58349092  0.99037181     0.07600
H1112       H  0.83315422  0.50684575  0.66640213     0.02500
H1113       H  0.84262475  0.47602523  0.63550694     0.03000
H1114       H  0.80485464  0.48607126  0.64298040     0.06500
H1115       H  0.92025135  0.46797683  0.57082152     0.05400
H1116       H  0.90441123  0.49934796  0.54699973    -0.00300
H1117       H  0.88107898  0.47286860  0.57083863     0.01200
H1118       H  0.90725407  0.57205428  0.71626102     0.04800
H1119       H  0.91806154  0.54058075  0.74411331     0.06800
H1120       H  0.88050166  0.54585147  0.73263325     0.07600
C1121       C  0.82796108  0.49516143  0.94186852    -0.22000
C1122       C  0.83451693  0.51223288  0.90883598     0.10000
C1123       C  0.81812932  0.53786328  0.90155987     0.10400
C1124       C  0.79644420  0.54651346  0.92851140    -0.16900
C1125       C  0.79074629  0.53018255  0.96253289    -0.27300
C1126       C  0.80600561  0.50362651  0.96857502     0.18700
C1127       C  0.85969612  0.50376000  0.88352614     0.12700
C1128       C  0.82424253  0.55661540  0.86617023    -0.11700
H1129       H  0.78484574  0.56690930  0.92411537     0.13000
C1130       C  0.79869923  0.47906460  0.49706123    -0.22500
H1131       H  0.84028733  0.47523502  0.94703787     0.08600
C1132       C  0.88875046  0.50978340  0.89500989     0.04900
C1133       C  0.91199723  0.50200712  0.87003638    -0.19700
C1134       C  0.90703072  0.48860551  0.83353395    -0.12000
C1135       C  0.87779923  0.48243629  0.82208721     0.13600
C1136       C  0.85450858  0.49001861  0.84738910    -0.22500
C1137       C  0.89520773  0.52516213  0.93315853    -0.05500
H1138       H  0.93428331  0.50663205  0.87895894     0.15200
C1139       C  0.87084013  0.46900828  0.78275803    -0.15700
H1140       H  0.83208786  0.48559901  0.83877482     0.09500
H1141       H  0.81858309  0.47632663  0.51553637     0.07400
H1142       H  0.79272117  0.45757954  0.48438856     0.08600
H1143       H  0.78021639  0.48617358  0.51597625     0.07600
H1144       H  0.82056926  0.54384788  0.83890556     0.02500
H1145       H  0.84732369  0.56418967  0.86688461     0.03000
H1146       H  0.80968679  0.57612115  0.86527390     0.06500
H1147       H  0.91911252  0.52835418  0.93750606     0.05400
H1148       H  0.88681887  0.51218740  0.95827466    -0.00300
H1149       H  0.88451203  0.54696394  0.93312689     0.01200
H1150       H  0.84682053  0.46715040  0.77803416     0.04800
H1151       H  0.88032995  0.44670109  0.78098997     0.06800
H1152       H  0.87993573  0.48272096  0.75879182     0.07600
C1153       C  0.68673469  0.51138612  0.92106056    -0.22000
C1154       C  0.68273292  0.53246199  0.89169122     0.10000
C1155       C  0.70055363  0.55750731  0.89123524     0.10400
C1156       C  0.72102453  0.56168920  0.92149368    -0.16900
C1157       C  0.72440891  0.54105168  0.95159728    -0.27300
C1158       C  0.70744916  0.51530870  0.95100325     0.18700
C1159       C  0.65850245  0.52861424  0.86324465     0.12700
C1160       C  0.69759985  0.57992773  0.85914007    -0.11700
H1161       H  0.73370315  0.58160638  0.92241360     0.13000
C1162       C  0.71005131  0.49197737  0.98204065    -0.22500
H1163       H  0.67307560  0.49208417  0.92115574     0.08600
C1164       C  0.66160371  0.51066013  0.82988906     0.04900
C1165       C  0.63730393  0.50605410  0.80544698    -0.19700
C1166       C  0.60984037  0.51881366  0.81372946    -0.12000
C1167       C  0.60700079  0.53736944  0.84688781     0.13600
C1168       C  0.63145898  0.54209975  0.87110051    -0.22500
C1169       C  0.69042146  0.49600511  0.82053826    -0.05500
H1170       H  0.63957153  0.49176605  0.78021159     0.15200
C1171       C  0.57800368  0.55082838  0.85836292    -0.15700
H1172       H  0.62932052  0.55572640  0.89701899     0.09500
H1173       H  0.71598110  0.47090109  0.96792894     0.07400
H1174       H  0.68869510  0.48953019  0.99738626     0.08600
H1175       H  0.72698881  0.49683161  0.00437561     0.07600
H1176       H  0.67509013  0.58926702  0.85927093     0.02500
H1177       H  0.70190940  0.56953880  0.83019595     0.03000
H1178       H  0.71338906  0.59807519  0.86295648     0.06500
H1179       H  0.68916573  0.48282842  0.79319070     0.05400
H1180       H  0.69678385  0.48124539  0.84497983    -0.00300
H1181       H  0.70767944  0.51274162  0.81653010     0.01200
H1182       H  0.57957589  0.56343479  0.88617025     0.04800
H1183       H  0.56151737  0.53338296  0.86272962     0.06800
H1184       H  0.57044540  0.56605530  0.83509402     0.07600
C1185       C  0.11279496  0.48241962  0.89432004    -0.22000
C1186       C  0.13107205  0.45856884  0.88586974     0.10000
C1187       C  0.12537041  0.44147156  0.85220520     0.10400
C1188       C  0.10239305  0.44948943  0.82668554    -0.16900
C1189       C  0.08505320  0.47441417  0.83384723    -0.27300
C1190       C  0.08963403  0.49033391  0.86915729     0.18700
C1191       C  0.15718327  0.45299679  0.91113936     0.12700
C1192       C  0.14426546  0.41537849  0.84252806    -0.11700
H1193       H  0.09909459  0.43719746  0.79984092     0.13000
C1194       C  0.07043931  0.51562905  0.88155943    -0.22500
H1195       H  0.11690308  0.49524399  0.92051539     0.08600
C1196       C  0.18439983  0.46615582  0.90272359     0.04900
C1197       C  0.20905114  0.45905685  0.92557663    -0.19700
C1198       C  0.20713422  0.43958262  0.95731222    -0.12000
C1199       C  0.17973821  0.42672355  0.96619328     0.13600
C1200       C  0.15505349  0.43376981  0.94312067    -0.22500
C1201       C  0.18742578  0.48763355  0.86946988    -0.05500
H1202       H  0.23004649  0.46882049  0.91869305     0.15200
C1203       C  0.17598029  0.40462860  0.99853822    -0.15700
H1204       H  0.13415441  0.42363532  0.94951265     0.09500
H1205       H  0.08338195  0.53608161  0.88110596     0.07400
H1206       H  0.06233514  0.51187219  0.91192808     0.08600
H1207       H  0.05078152  0.51840900  0.86281864     0.07600
H1208       H  0.14315078  0.39930736  0.86688525     0.02500
H1209       H  0.16737436  0.42227154  0.83846077     0.03000
H1210       H  0.13699921  0.40442529  0.81512149     0.06500
H1211       H  0.21019159  0.49592776  0.86688589     0.05400
H1212       H  0.17261236  0.50656871  0.87458549    -0.00300
H1213       H  0.18153258  0.47704738  0.84124079     0.01200
H1214       H  0.16051558  0.41333595  0.02095911     0.04800
H1215       H  0.19688025  0.39892351  0.01324672     0.06800
H1216       H  0.16688416  0.38417970  0.98612658     0.07600
C1217       C  0.18758134  0.48877391  0.56860711    -0.22000
C1218       C  0.17785984  0.47017403  0.59856595     0.10000
C1219       C  0.19127458  0.44261688  0.60360285     0.10400
C1220       C  0.21352220  0.43387181  0.57762221    -0.16900
C1221       C  0.22213613  0.45178169  0.54632556    -0.27300
C1222       C  0.20981603  0.47995628  0.54255652     0.18700
C1223       C  0.15237154  0.47904730  0.62280679     0.12700
C1224       C  0.18157575  0.42220334  0.63573673    -0.11700
H1225       H  0.22525484  0.41399085  0.08095112     0.13000
C1226       C  0.21994380  0.50115802  0.51172288    -0.22500
H1227       H  0.17746411  0.51008351  0.56519209     0.08600
C1228       C  0.15554321  0.49591157  0.65715423     0.04900
C1229       C  0.13069155  0.50225810  0.68015314    -0.19700
C1230       C  0.10283939  0.49161710  0.66990268    -0.12000
C1231       C  0.09975308  0.47510791  0.63482280     0.13600
C1232       C  0.12457981  0.46928804  0.61166090    -0.22500
C1233       C  0.18522575  0.50660789  0.66985402    -0.05500
H1234       H  0.13321468  0.51473523  0.70699758     0.15200
C1235       C  0.07046393  0.46379580  0.62111371    -0.15700
H1236       H  0.12248319  0.45644138  0.58504549     0.09500
H1237       H  0.22748201  0.52151579  0.52614086     0.07400
H1238       H  0.20147895  0.50647639  0.49168657     0.08600
H1239       H  0.23849206  0.49251615  0.49403279     0.07600
H1240       H  0.15810700  0.41662199  0.63174825     0.02500
H1241       H  0.18449296  0.43281114  0.66479683     0.03000
H1242       H  0.19446905  0.40156876  0.63558250     0.06500
H1243       H  0.18393123  0.51932395  0.69760770     0.05400
H1244       H  0.19460864  0.52087529  0.64672037    -0.00300
H1245       H  0.20017034  0.48774732  0.67470189     0.01200
H1246       H  0.07201291  0.45354653  0.59158309     0.04800
H1247       H  0.05440497  0.48203839  0.61924050     0.06800
H1248       H  0.06226680  0.44685414  0.64159339     0.07600
C1249       C  0.32147155  0.42444229  0.61016984    -0.22000
C1250       C  0.33259675  0.45290632  0.61150742     0.10000
C1251       C  0.32099621  0.47431130  0.58589147     0.10400
C1252       C  0.29848201  0.46675157  0.55965128    -0.16900
C1253       C  0.28812384  0.43804453  0.55725816    -0.27300
C1254       C  0.29951953  0.41668157  0.58316733     0.18700
C1255       C  0.35796961  0.45929784  0.63752894     0.12700
C1256       C  0.33357874  0.50464299  0.58450971    -0.11700
H1257       H  0.28706410  0.48350868  0.04162484     0.13000
C1258       C  0.28925466  0.38550009  0.58276461    -0.22500
H1259       H  0.33053951  0.40797762  0.62961212     0.08600
C1260       C  0.35455171  0.47363023  0.67401206     0.04900
C1261       C  0.37959872  0.48159472  0.69557561    -0.19700
C1262       C  0.40791514  0.47429605  0.68241082    -0.12000
C1263       C  0.41112693  0.45836865  0.64701231     0.13600
C1264       C  0.38616086  0.45139231  0.62477936    -0.22500
C1265       C  0.32451287  0.47994903  0.69050942    -0.05500
H1266       H  0.37708973  0.49340764  0.72299321     0.15200
C1267       C  0.44084387  0.44931770  0.63207148    -0.15700
H1268       H  0.38861820  0.43998725  0.59703046     0.09500
H1269       H  0.28065507  0.37966029  0.61227003     0.07400
H1270       H  0.30796458  0.37083759  0.57552787     0.08600
H1271       H  0.27154573  0.38163935  0.56112165     0.07600
H1272       H  0.35723116  0.50344918  0.57682633     0.02500
H1273       H  0.33111709  0.51551152  0.61343572     0.03000
H1274       H  0.31747653  0.51992685  0.06636770     0.06500
H1275       H  0.32574740  0.49079726  0.71965380     0.05400
H1276       H  0.31238469  0.45917704  0.69415347    -0.00300
H1277       H  0.31200004  0.49440659  0.67044791     0.01200
H1278       H  0.45096820  0.43397446  0.65333923     0.04800
H1279       H  0.45501891  0.46875967  0.62841825     0.06800
H1280       H  0.43942415  0.43801651  0.60327072     0.07600
C1281       C  0.44954122  0.17767283  0.59125179    -0.22000
C1282       C  0.47798461  0.17314142  0.60560276     0.10000
C1283       C  0.50082702  0.19159500  0.59269073     0.10400
C1284       C  0.49478261  0.21362485  0.56494257    -0.16900
C1285       C  0.46661094  0.21707714  0.54897803    -0.27300
C1286       C  0.44357489  0.19920191  0.56297976     0.18700
C1287       C  0.48368445  0.14735261  0.63124842     0.12700
C1288       C  0.53171173  0.18754030  0.60740354    -0.11700
H1289       H  0.51251236  0.22695544  0.55379077     0.13000
C1290       C  0.41218318  0.20154389  0.04814743    -0.22500
H1291       H  0.43202706  0.16348067  0.60101482     0.08600
C1292       C  0.47460925  0.14631331  0.67097510     0.04900
C1293       C  0.48038909  0.12108660  0.69350519    -0.19700
C1294       C  0.49482899  0.09680860  0.67706835    -0.12000
C1295       C  0.50262437  0.09750105  0.63673876     0.13600
C1296       C  0.49732653  0.12281424  0.61461689    -0.22500
C1297       C  0.45935283  0.17200799  0.68970620    -0.05500
H1298       H  0.47414140  0.12052290  0.72424399     0.15200
C1299       C  0.51551004  0.07157259  0.61559407    -0.15700
H1300       H  0.50342624  0.12322867  0.58379256     0.09500
H1301       H  0.39740424  0.20661380  0.07324059     0.07400
H1302       H  0.40538837  0.18053562  0.03479075     0.08600
H1303       H  0.40920625  0.21889798  0.02585780     0.07600
H1304       H  0.54010521  0.16565229  0.59890781     0.02500
H1305       H  0.53206931  0.18959059  0.63991180     0.03000
H1306       H  0.54678569  0.20410231  0.59492008     0.06500
H1307       H  0.45434746  0.16791869  0.72117641     0.05400
H1308       H  0.43835567  0.17650951  0.67435596    -0.00300
H1309       H  0.47356888  0.19155241  0.68778632     0.01200
H1310       H  0.50171130  0.06619116  0.58974120     0.04800
H1311       H  0.51632862  0.05187148  0.63425012     0.06800
H1312       H  0.53800541  0.07677900  0.60533976     0.07600
C1313       C  0.51000039  0.39432728  0.88687600    -0.22000
C1314       C  0.48926778  0.37307060  0.87729630     0.10000
C1315       C  0.47400112  0.37514410  0.84133773     0.10400
C1316       C  0.48070138  0.39776751  0.81494727    -0.16900
C1317       C  0.50267237  0.41824627  0.82334465    -0.27300
C1318       C  0.51697884  0.41688542  0.86045056     0.18700
C1319       C  0.48527652  0.34763218  0.90388889     0.12700
C1320       C  0.45126538  0.35287957  0.83032758    -0.11700
H1321       H  0.46966971  0.39858860  0.78677023     0.13000
C1322       C  0.53943479  0.43914439  0.87278849    -0.22500
H1323       H  0.52140965  0.39270429  0.91472941     0.08600
C1324       C  0.50320112  0.32256572  0.90029168     0.04900
C1325       C  0.49708817  0.29786053  0.92321282    -0.19700
C1326       C  0.47343524  0.29751030  0.94967539    -0.12000
C1327       C  0.45590505  0.32292412  0.95401401     0.13600
C1328       C  0.46227109  0.34778137  0.93131553    -0.22500
C1329       C  0.52833032  0.32165863  0.87149564    -0.05500
H1330       H  0.51048099  0.27839430  0.91987096     0.15200
C1331       C  0.42948629  0.32417059  0.98057201    -0.15700
H1332       H  0.44848976  0.36704054  0.93392161     0.09500
H1333       H  0.55955048  0.43703460  0.85462440     0.07400
H1334       H  0.54612447  0.43615765  0.90391730     0.08600
H1335       H  0.53013062  0.46147538  0.86978423     0.07600
H1336       H  0.43335101  0.35299507  0.85246426     0.02500
H1337       H  0.46142048  0.33081926  0.82927378     0.03000
H1338       H  0.44148848  0.35751442  0.80109523     0.06500
H1339       H  0.54003029  0.30034378  0.87219826     0.05400
H1340       H  0.54432458  0.33901405  0.87876586    -0.00300
H1341       H  0.52001197  0.32517592  0.84120431     0.01200
H1342       H  0.43288654  0.34100072  0.00358701     0.04800
H1343       H  0.42494076  0.30310520  0.99515035     0.06800
H1344       H  0.40978640  0.33007347  0.96308878     0.07600
C1345       C  0.51690833  0.35006461  0.65117236    -0.22000
C1346       C  0.50253457  0.35434348  0.61529577     0.10000
C1347       C  0.49565177  0.38285385  0.60270530     0.10400
C1348       C  0.50382770  0.40661532  0.62607471    -0.16900
C1349       C  0.51762185  0.40259444  0.66259960    -0.27300
C1350       C  0.52439670  0.37381396  0.67524750     0.18700
C1351       C  0.49547857  0.32879835  0.59057836     0.12700
C1352       C  0.47910670  0.38813598  0.56500301    -0.11700
H1353       H  0.49890217  0.42853224  0.61606264     0.13000
C1354       C  0.53850858  0.36774065  0.71448132    -0.22500
H1355       H  0.52204128  0.32799674  0.66045172     0.08600
C1356       C  0.51446350  0.31979495  0.56013360     0.04900
C1357       C  0.50567703  0.29742201  0.53474699    -0.19700
C1358       C  0.47823025  0.28408976  0.53879655    -0.12000
C1359       C  0.45952446  0.29262036  0.57009569     0.13600
C1360       C  0.46860479  0.31466769  0.59593890    -0.22500
C1361       C  0.54377514  0.33414617  0.55412744    -0.05500
H1362       H  0.51913248  0.29102064  0.01019048     0.15200
C1363       C  0.42928805  0.28031437  0.57578902    -0.15700
H1364       H  0.45406728  0.32181025  0.61934408     0.09500
H1365       H  0.54085493  0.34396269  0.72006174     0.07400
H1366       H  0.52486874  0.37713136  0.73847920     0.08600
H1367       H  0.56080049  0.37731922  0.71529957     0.07600
H1368       H  0.45730854  0.37751279  0.56666522     0.02500
H1369       H  0.49146146  0.37896793  0.53970316     0.03000
H1370       H  0.47559347  0.41177046  0.55944465     0.06500
H1371       H  0.55457252  0.32539101  0.02795658     0.05400
H1372       H  0.55732736  0.33147462  0.58097744    -0.00300
H1373       H  0.54073011  0.35776129  0.54810360     0.01200
H1374       H  0.42824551  0.26850357  0.60424243     0.04800
H1375       H  0.42286893  0.26525843  0.55202514     0.06800
H1376       H  0.41294479  0.29836863  0.57612809     0.07600
C1377       C  0.53958739  0.84709574  0.82002751    -0.22000
C1378       C  0.52752216  0.84428099  0.85783441     0.10000
C1379       C  0.51084758  0.86760814  0.87365184     0.10400
C1380       C  0.50527530  0.89242858  0.85055811    -0.16900
C1381       C  0.51717926  0.89529877  0.81268365    -0.27300
C1382       C  0.53485472  0.87246816  0.79738535     0.18700
C1383       C  0.53464792  0.81812562  0.88210435     0.12700
C1384       C  0.50002662  0.86695585  0.91556778    -0.11700
H1385       H  0.49213625  0.91011392  0.86254924     0.13000
C1386       C  0.54816800  0.87450450  0.75694490    -0.22500
H1387       H  0.55297194  0.82947909  0.80839179     0.08600
C1388       C  0.51375131  0.79625281  0.89032190     0.04900
C1389       C  0.51949739  0.77572948  0.92024504    -0.19700
C1390       C  0.54604423  0.77610928  0.94118341    -0.12000
C1391       C  0.56828772  0.79569209  0.92915028     0.13600
C1392       C  0.56213240  0.81671459  0.90029314    -0.22500
C1393       C  0.48539007  0.79474811  0.86777228    -0.05500
H1394       H  0.50252616  0.76054500  0.92879640     0.15200
C1395       C  0.59849582  0.79479472  0.44586390    -0.15700
H1396       H  0.57858320  0.83283577  0.89296673     0.09500
H1397       H  0.53061287  0.87781707  0.73478548     0.07400
H1398       H  0.56047902  0.85435198  0.74906566     0.08600
H1399       H  0.56370202  0.89304608  0.75571205     0.07600
H1400       H  0.51895511  0.86455911  0.93582495     0.02500
H1401       H  0.48486801  0.84845212  0.92014012     0.03000
H1402       H  0.48812112  0.88733254  0.92351377     0.06500
H1403       H  0.47165099  0.77619436  0.87766240     0.05400
H1404       H  0.49024177  0.79172109  0.83603812    -0.00300
H1405       H  0.47247291  0.81510685  0.87157119     0.01200
H1406       H  0.61479682  0.79195763  0.42185556     0.04800
H1407       H  0.60193345  0.77665046  0.46689492     0.06800
H1408       H  0.60278103  0.81575377  0.46113394     0.07600
C1409       C  0.51667411  0.59956336  0.60918220    -0.22000
C1410       C  0.53146677  0.62445139  0.62235815     0.10000
C1411       C  0.54151922  0.62546643  0.66160643     0.10400
C1412       C  0.53524262  0.60221751  0.68726591    -0.16900
C1413       C  0.51888028  0.57802249  0.67475228    -0.27300
C1414       C  0.51054251  0.57620491  0.63467644     0.18700
C1415       C  0.53408070  0.65008719  0.59563132     0.12700
C1416       C  0.55839544  0.65134799  0.67658887    -0.11700
H1417       H  0.54183665  0.60366322  0.71780689     0.13000
C1418       C  0.49552505  0.54987154  0.61759655    -0.22500
H1419       H  0.50934550  0.59858627  0.57890661     0.08600
C1420       C  0.55499336  0.65132002  0.56497892     0.04900
C1421       C  0.55668219  0.67652963  0.54135654    -0.19700
C1422       C  0.53794350  0.70050272  0.54777070    -0.12000
C1423       C  0.51627556  0.69870605  0.57751951     0.13600
C1424       C  0.51478449  0.67365336  0.60113778    -0.22500
C1425       C  0.57601287  0.62642014  0.55798754    -0.05500
H1426       H  0.57332570  0.67794051  0.51865894     0.15200
C1427       C  0.49398881  0.72253038  0.58477894    -0.15700
H1428       H  0.49834765  0.67246637  0.62415172     0.09500
H1429       H  0.50845059  0.54159387  0.59219861     0.07400
H1430       H  0.47327239  0.55608482  0.60725442     0.08600
H1431       H  0.49356545  0.53160436  0.63873659     0.07600
H1432       H  0.54468462  0.67137312  0.67464437     0.02500
H1433       H  0.57853663  0.65427596  0.65866332     0.03000
H1434       H  0.56504609  0.64847208  0.70774886     0.06500
H1435       H  0.59129065  0.63108580  0.53334117     0.05400
H1436       H  0.56364315  0.60636700  0.55060183    -0.00300
H1437       H  0.58921618  0.62246811  0.58487785     0.01200
H1438       H  0.47182441  0.71397966  0.08334812     0.04800
H1439       H  0.49572001  0.74104751  0.06376898     0.06800
H1440       H  0.49699066  0.73153977  0.61479481     0.07600
C1441       C  0.50788165  0.61171746  0.89944561    -0.22000
C1442       C  0.50678734  0.63978669  0.88322638     0.10000
C1443       C  0.49892089  0.64342524  0.84347682     0.10400
C1444       C  0.49340373  0.61867987  0.82032128    -0.16900
C1445       C  0.49572577  0.59039066  0.83604086    -0.27300
C1446       C  0.50202874  0.58695506  0.87657119     0.18700
C1447       C  0.51476649  0.66491556  0.90833228     0.12700
C1448       C  0.49676013  0.67338179  0.82549209    -0.11700
H1449       H  0.48835580  0.62139505  0.78940226     0.13000
C1450       C  0.50182046  0.55780891  0.89712069    -0.22500
H1451       H  0.51336110  0.60912830  0.93026443     0.08600
C1452       C  0.49459788  0.67737238  0.93505672     0.04900
C1453       C  0.50383738  0.69991661  0.95996685    -0.19700
C1454       C  0.53269808  0.71025245  0.95861948    -0.12000
C1455       C  0.55283681  0.69791186  0.93167407     0.13600
C1456       C  0.54353849  0.67548850  0.90661793    -0.22500
C1457       C  0.46343820  0.66680758  0.93729678    -0.05500
H1458       H  0.48866146  0.70943801  0.98096027     0.15200
C1459       C  0.58431527  0.70700757  0.42966052    -0.15700
H1460       H  0.55903237  0.66565161  0.88627361     0.09500
H1461       H  0.48589270  0.55859430  0.92183198     0.07400
H1462       H  0.52390454  0.55303912  0.90924548     0.08600
H1463       H  0.49518561  0.53955467  0.87782629     0.07600
H1464       H  0.51834859  0.68439115  0.82714218     0.02500
H1465       H  0.48020813  0.68660032  0.84166881     0.03000
H1466       H  0.49010528  0.67239504  0.79413039     0.06500
H1467       H  0.45049429  0.67913164  0.95952609     0.05400
H1468       H  0.46315017  0.64337879  0.94553061    -0.00300
H1469       H  0.45266727  0.66961324  0.90828977     0.01200
H1470       H  0.59874880  0.68781111  0.43491034     0.04800
H1471       H  0.58990963  0.72373744  0.45184486     0.06800
H1472       H  0.58906501  0.71599711  0.40004226     0.07600
C1473       C  0.18358632  0.01501814  0.57089292    -0.22000
C1474       C  0.18178116  0.03206982  0.60499134     0.10000
C1475       C  0.20282459  0.05405850  0.61150398     0.10400
C1476       C  0.22410763  0.05968710  0.58244972    -0.16900
C1477       C  0.22519860  0.04329924  0.54759185    -0.27300
C1478       C  0.20508450  0.02021897  0.54223184     0.18700
C1479       C  0.15719527  0.02666942  0.63277375     0.12700
C1480       C  0.20270050  0.07158996  0.64895026    -0.11700
H1481       H  0.23924753  0.07757768  0.58637229     0.13000
C1482       C  0.20494409  0.00119020  0.00534848    -0.22500
H1483       H  0.16770715  0.99782827  0.56625088     0.08600
C1484       C  0.13065699  0.04262036  0.63049555     0.04900
C1485       C  0.10727264  0.03534914  0.65556371    -0.19700
C1486       C  0.10944152  0.01201588  0.68226732    -0.12000
C1487       C  0.13638859  0.99652952  0.68513894     0.13600
C1488       C  0.15975724  0.00392081  0.66008083    -0.22500
C1489       C  0.12656049  0.06653536  0.60055577    -0.05500
H1490       H  0.08671416  0.04721553  0.65314194     0.15200
C1491       C  0.14175769  0.97269120  0.71483049    -0.15700
H1492       H  0.18018947  0.99176981  0.66179376     0.09500
H1493       H  0.18378625  0.00394614  0.98963897     0.07400
H1494       H  0.20750676  0.97795617  0.01399336     0.08600
H1495       H  0.22294035  0.00637604  0.98464209     0.07600
H1496       H  0.20546559  0.05673751  0.67446510     0.02500
H1497       H  0.18166885  0.08362751  0.65211511     0.03000
H1498       H  0.22079592  0.08771359  0.64949541     0.06500
H1499       H  0.10434331  0.07652260  0.60242461     0.05400
H1500       H  0.12943162  0.05749672  0.57050693    -0.00300
H1501       H  0.14287865  0.08402871  0.60530805     0.01200
H1502       H  0.14567402  0.95169546  0.69934073     0.04800
H1503       H  0.12345610  0.96988830  0.73586107     0.06800
H1504       H  0.16149074  0.97805610  0.73245471     0.07600
C1505       C  0.35940831  0.05287769  0.93664449    -0.22000
C1506       C  0.35665647  0.03525307  0.90314328     0.10000
C1507       C  0.32907835  0.02339700  0.89362979     0.10400
C1508       C  0.30465559  0.03026690  0.91701514    -0.16900
C1509       C  0.30710990  0.04830920  0.95019002    -0.27300
C1510       C  0.33490332  0.05979811  0.96017153     0.18700
C1511       C  0.38256840  0.02980469  0.87761181     0.12700
C1512       C  0.32543931  0.00344288  0.85877602    -0.11700
H1513       H  0.28339965  0.02140368  0.90944240     0.13000
C1514       C  0.33933840  0.08036737  0.99411942    -0.22500
H1515       H  0.38065339  0.06192421  0.94385782     0.08600
C1516       C  0.38824998  0.04723190  0.84426356     0.04900
C1517       C  0.41050321  0.03883908  0.81781703    -0.19700
C1518       C  0.42733025  0.01349707  0.82418048    -0.12000
C1519       C  0.42335665  0.99769970  0.85967904     0.13600
C1520       C  0.40059890  0.00569834  0.88543735    -0.22500
C1521       C  0.37026433  0.07421596  0.83612771    -0.05500
H1522       H  0.41371987  0.05127747  0.79107644     0.15200
C1523       C  0.44294881  0.97264680  0.87177229    -0.15700
H1524       H  0.39667055  0.99282493  0.91164288     0.09500
H1525       H  0.34951653  0.10082414  0.98334977     0.07400
H1526       H  0.35415366  0.07008492  0.01605353     0.08600
H1527       H  0.31852813  0.08648043  0.00883728     0.07600
H1528       H  0.33966433  0.98389025  0.86236902     0.02500
H1529       H  0.33167327  0.01498460  0.83136676     0.03000
H1530       H  0.30243019  0.99596070  0.85564218     0.06500
H1531       H  0.37759590  0.08543571  0.80892990     0.05400
H1532       H  0.37239396  0.08971785  0.86103861    -0.00300
H1533       H  0.34683484  0.06836559  0.83253887     0.01200
H1534       H  0.45153151  0.97674240  0.90179548     0.04800
H1535       H  0.46231661  0.96987799  0.85240624     0.06800
H1536       H  0.43019378  0.95208138  0.87206564     0.07600
C1537       C  0.32785901  0.99517221  0.55436884    -0.22000
C1538       C  0.33752256  0.01241591  0.58575959     0.10000
C1539       C  0.32339391  0.03919999  0.59394449     0.10400
C1540       C  0.30070980  0.04880068  0.56938387    -0.16900
C1541       C  0.29206810  0.03240827  0.53667611    -0.27300
C1542       C  0.30506273  0.00480036  0.52981859     0.18700
C1543       C  0.36352955  0.00322139  0.60858346     0.12700
C1544       C  0.33279997  0.05797432  0.62800291    -0.11700
H1545       H  0.29110034  0.07022828  0.07395460     0.13000
C1546       C  0.29530353  0.98512673  0.49701293    -0.22500
H1547       H  0.33850923  0.97439982  0.54857400     0.08600
C1548       C  0.36117054  0.98447593  0.64117478     0.04900
C1549       C  0.38575957  0.97985825  0.66514260    -0.19700
C1550       C  0.41263568  0.99376259  0.65742333    -0.12000
C1551       C  0.41524076  0.01141966  0.62332743     0.13600
C1552       C  0.39060287  0.01576861  0.59932945    -0.22500
C1553       C  0.33252957  0.97001705  0.65116945    -0.05500
H1554       H  0.38361711  0.96611302  0.69089298     0.15200
C1555       C  0.44373830  0.02561316  0.61162671    -0.15700
H1556       H  0.39211550  0.02991917  0.57387480     0.09500
H1557       H  0.28827710  0.96386141  0.50937419     0.07400
H1558       H  0.31381283  0.98134170  0.47634906     0.08600
H1559       H  0.27654778  0.99431052  0.48037126     0.07600
H1560       H  0.35600598  0.06460370  0.62416474     0.02500
H1561       H  0.33057110  0.04556651  0.65586124     0.03000
H1562       H  0.31923256  0.07809801  0.63040204     0.06500
H1563       H  0.33440352  0.95614685  0.67782517     0.05400
H1564       H  0.32555244  0.95596244  0.62633391    -0.00300
H1565       H  0.31542247  0.98685924  0.65669956    -0.06400
H1566       H  0.44206478  0.03654391  0.58257172     0.04800
H1567       H  0.46137806  0.00887893  0.60957755     0.06800
H1568       H  0.44985689  0.04257480  0.63334972     0.07600
C1569       C  0.81193863  0.99193723  0.89488895    -0.22000
C1570       C  0.83023252  0.96907326  0.88219198     0.10000
C1571       C  0.82755103  0.94133036  0.89977555     0.10400
C1572       C  0.80695784  0.93722734  0.93000736    -0.16900
C1573       C  0.78967530  0.96041487  0.94425234    -0.27300
C1574       C  0.79224679  0.98822181  0.92637658     0.18700
C1575       C  0.85539832  0.97591780  0.85595945     0.12700
C1576       C  0.84771624  0.91653538  0.88844433    -0.11700
H1577       H  0.80549246  0.91611839  0.94422932     0.13000
C1578       C  0.77677475  0.01503681  0.94174418    -0.22500
H1579       H  0.81463415  0.01342888  0.88209401     0.08600
C1580       C  0.85492273  0.97084909  0.81500723     0.04900
C1581       C  0.88010630  0.97697846  0.79241641    -0.19700
C1582       C  0.90540838  0.98859696  0.80985920    -0.12000
C1583       C  0.90576096  0.99358320  0.85091892     0.13600
C1584       C  0.88074307  0.98729101  0.87329050    -0.22500
C1585       C  0.82769134  0.95976386  0.79512101    -0.05500
H1586       H  0.87981906  0.97338803  0.76092561     0.15200
C1587       C  0.93232262  0.00485073  0.87240199    -0.15700
H1588       H  0.88111353  0.99097174  0.90478213     0.09500
H1589       H  0.76143502  0.02348119  0.91907767     0.07400
H1590       H  0.79317855  0.03214366  0.94849569     0.08600
H1591       H  0.76439024  0.01102818  0.96914780     0.07600
H1592       H  0.87084769  0.92276971  0.89395016     0.02500
H1593       H  0.84505000  0.91122027  0.85687373     0.03000
H1594       H  0.84306393  0.89649905  0.90566396     0.06500
H1595       H  0.83091775  0.95735072  0.76291210     0.05400
H1596       H  0.80932840  0.97534063  0.80012132    -0.00300
H1597       H  0.82156103  0.93816910  0.80717287     0.01200
H1598       H  0.92704098  0.02627086  0.88600628     0.04800
H1599       H  0.95177415  0.00754753  0.85322493     0.06800
H1600       H  0.93849006  0.98926651  0.89600168     0.07600
C1601       C  0.61115626  0.98317525  0.60754473    -0.22000
C1602       C  0.63444801  0.96551521  0.62020851     0.10000
C1603       C  0.63372374  0.95341508  0.65837164     0.10400
C1604       C  0.61020889  0.96025017  0.68361525    -0.16900
C1605       C  0.58772533  0.97933421  0.67173889    -0.27300
C1606       C  0.58768892  0.99003156  0.63270650     0.18700
C1607       C  0.66071182  0.96259344  0.59463584     0.12700
C1608       C  0.65838724  0.93433114  0.67296648    -0.11700
H1609       H  0.61035290  0.95216256  0.71356188     0.13000
C1610       C  0.56321358  0.00866576  0.61674513    -0.22500
H1611       H  0.61164895  0.99225706  0.57812200     0.08600
C1612       C  0.66371553  0.94010956  0.56651533     0.04900
C1613       C  0.68949154  0.93837825  0.54371511    -0.19700
C1614       C  0.71219406  0.95864142  0.54861230    -0.12000
C1615       C  0.70864188  0.98168427  0.57594716     0.13600
C1616       C  0.68302267  0.98324935  0.59868150    -0.22500
C1617       C  0.63987775  0.91790448  0.56096377    -0.05500
H1618       H  0.69224546  0.92081763  0.52265247     0.15200
C1619       C  0.73116812  0.00529027  0.58152933    -0.15700
H1620       H  0.68041571  0.00076902  0.61986799     0.09500
H1621       H  0.55450357  0.99866353  0.58945103     0.07400
H1622       H  0.57161500  0.03077077  0.60983404     0.08600
H1623       H  0.54466261  0.01055785  0.63762442     0.07600
H1624       H  0.67927301  0.94666445  0.67243539     0.02500
H1625       H  0.66057858  0.91479543  0.65388483     0.03000
H1626       H  0.65449362  0.92681562  0.70355940     0.06500
H1627       H  0.64571435  0.90172596  0.53788764     0.05400
H1628       H  0.61925111  0.92904750  0.55208318    -0.00300
H1629       H  0.63609109  0.90596061  0.58887145     0.01200
H1630       H  0.72081301  0.02691164  0.57618907     0.04800
H1631       H  0.75006485  0.00333560  0.56118490     0.06800
H1632       H  0.73952497  0.00462019  0.61215228     0.07600
C1633       C  0.69208249  0.95519513  0.90289092    -0.22000
C1634       C  0.67587923  0.98093948  0.90836175     0.10000
C1635       C  0.68266528  0.99968996  0.93987017     0.10400
C1636       C  0.70571523  0.99228104  0.96524252    -0.16900
C1637       C  0.72193169  0.96645324  0.95999473    -0.27300
C1638       C  0.71475410  0.94744909  0.92874187     0.18700
C1639       C  0.65079404  0.98703924  0.88209196     0.12700
C1640       C  0.66534101  0.02727923  0.94690581    -0.11700
H1641       H  0.71108699  0.00605557  0.48991257     0.13000
C1642       C  0.72941216  0.91823092  0.92304738    -0.22500
H1643       H  0.68636936  0.94061369  0.87901968     0.08600
C1644       C  0.65425868  0.00262800  0.84674818     0.04900
C1645       C  0.62962370  0.00816837  0.82316958    -0.19700
C1646       C  0.60168542  0.99781838  0.83366247    -0.12000
C1647       C  0.59841705  0.98190160  0.86922189     0.13600
C1648       C  0.62304461  0.97698133  0.89305385    -0.22500
C1649       C  0.68401536  0.01305371  0.83379395    -0.05500
H1650       H  0.63237946  0.01995590  0.79580929     0.15200
C1651       C  0.56915098  0.97043232  0.88286088    -0.15700
H1652       H  0.62075871  0.96501705  0.92036901     0.09500
H1653       H  0.74112484  0.91792005  0.89441350     0.07400
H1654       H  0.71254175  0.90084420  0.92302063     0.08600
H1655       H  0.74522995  0.91281528  0.94660370     0.07600
H1656       H  0.64196221  0.02187853  0.95222286     0.02500
H1657       H  0.66694176  0.04173168  0.92082731     0.03000
H1658       H  0.67344864  0.03890980  0.47356426     0.06500
H1659       H  0.68292731  0.02486573  0.80533021     0.05400
H1660       H  0.69903796  0.99408935  0.83016320    -0.00300
H1661       H  0.69319627  0.02806634  0.85617127     0.01200
H1662       H  0.56135421  0.95312628  0.86265189     0.04800
H1663       H  0.55286925  0.98851113  0.88414857     0.06800
H1664       H  0.57056108  0.96058672  0.91263396     0.07600
C1665       C  0.05512730  0.12015010  0.84101067    -0.22000
C1666       C  0.03862912  0.12393279  0.87546127     0.10000
C1667       C  0.01430259  0.10576483  0.88249803     0.10400
C1668       C  0.00664269  0.08458044  0.85446318    -0.16900
C1669       C  0.02252599  0.08130583  0.81922339    -0.27300
C1670       C  0.04732506  0.09923509  0.81264474     0.18700
C1671       C  0.04446264  0.14985637  0.90044144     0.12700
C1672       C  0.99574148  0.10955363  0.91885498    -0.11700
H1673       H  0.98755494  0.07108099  0.85952721     0.13000
C1674       C  0.06446610  0.09792696  0.77472330    -0.22500
H1675       H  0.07340821  0.13462033  0.83548974     0.08600
C1676       C  0.06339135  0.14902694  0.93323977     0.04900
C1677       C  0.06847546  0.17482871  0.95466645    -0.19700
C1678       C  0.05489077  0.20129564  0.94408041    -0.12000
C1679       C  0.03506874  0.20167359  0.91206624     0.13600
C1680       C  0.03055711  0.17610451  0.89036586    -0.22500
C1681       C  0.07848295  0.12112480  0.94518694    -0.05500
H1682       H  0.08352736  0.17448724  0.97929084     0.15200
C1683       C  0.01748893  0.22828807  0.90055440    -0.15700
H1684       H  0.01568161  0.17653534  0.86551910     0.09500
H1685       H  0.07510298  0.07622237  0.77154116     0.07400
H1686       H  0.08202625  0.11461852  0.77378292     0.08600
H1687       H  0.04959993  0.10194076  0.74943382     0.07600
H1688       H  0.98626012  0.13191164  0.91959994     0.02500
H1689       H  0.00931965  0.10614486  0.94550327     0.03000
H1690       H  0.97737913  0.09374037  0.91970046     0.06500
H1691       H  0.09260757  0.12430441  0.97140089     0.05400
H1692       H  0.09245447  0.11308788  0.92067767    -0.00300
H1693       H  0.06195097  0.10429710  0.95248171     0.01200
H1694       H  0.02394383  0.23534998  0.87056459     0.04800
H1695       H  0.02018188  0.24687398  0.92098317     0.06800
H1696       H  0.99379734  0.22278926  0.90048572     0.07600
C1697       C  0.00313397  0.14697256  0.63934905    -0.22000
C1698       C  0.01916852  0.14153493  0.60500735     0.10000
C1699       C  0.02852372  0.11287339  0.59627014     0.10400
C1700       C  0.02166867  0.09015903  0.62236917    -0.16900
C1701       C  0.00564901  0.09544068  0.65706386    -0.27300
C1702       C  0.99634653  0.12437432  0.66566328     0.18700
C1703       C  0.02760651  0.16649845  0.57989585     0.12700
C1704       C  0.04599101  0.10639310  0.55959901    -0.11700
H1705       H  0.02903281  0.06816705  0.61575408     0.13000
C1706       C  0.98062162  0.13201578  0.70335608    -0.22500
H1707       H  0.99645973  0.16918429  0.64595309     0.08600
C1708       C  0.00921354  0.17700302  0.54970817     0.04900
C1709       C  0.01890896  0.20004680  0.52591030    -0.19700
C1710       C  0.04673400  0.21239485  0.53124885    -0.12000
C1711       C  0.06513846  0.20170747  0.56144879     0.13600
C1712       C  0.05506064  0.17929080  0.58590741    -0.22500
C1713       C  0.97972919  0.16349583  0.54217531    -0.05500
H1714       H  0.00511966  0.20807819  0.50232134     0.15200
C1715       C  0.09699334  0.21115272  0.06864266    -0.15700
H1716       H  0.06919474  0.17092105  0.60894944     0.09500
H1717       H  0.95879935  0.12144674  0.70412086     0.07400
H1718       H  0.97695363  0.15590369  0.70622772     0.08600
H1719       H  0.99388209  0.12476875  0.72895379     0.07600
H1720       H  0.06684379  0.11878230  0.56004554     0.02500
H1721       H  0.03317802  0.11282789  0.53323265     0.03000
H1722       H  0.05147747  0.08282362  0.55708054     0.06500
H1723       H  0.96824810  0.17418002  0.51721385     0.05400
H1724       H  0.96572831  0.16569112  0.56874626    -0.00300
H1725       H  0.98252079  0.14000764  0.53500492     0.01200
H1726       H  0.09799590  0.22259206  0.59666938     0.04800
H1727       H  0.10425265  0.22716931  0.04643631     0.06800
H1728       H  0.11223482  0.19221526  0.06681962     0.07600
C1729       C  0.02157078  0.36816205  0.61712680    -0.22000
C1730       C  0.03739950  0.34461563  0.63287591     0.10000
C1731       C  0.04564829  0.34539838  0.67286099     0.10400
C1732       C  0.03737139  0.36947807  0.69632901    -0.16900
C1733       C  0.02090481  0.39279285  0.68078190    -0.27300
C1734       C  0.01346658  0.39231337  0.64028656     0.18700
C1735       C  0.04551663  0.31990210  0.60631624     0.12700
C1736       C  0.06268254  0.32057180  0.69085634    -0.11700
H1737       H  0.04329947  0.36985309  0.72716192     0.13000
C1738       C  0.99804945  0.41726719  0.61989121    -0.22500
H1739       H  0.01579718  0.36785653  0.58621380     0.08600
C1740       C  0.02464766  0.29912483  0.59402589     0.04900
C1741       C  0.03213208  0.27875793  0.56460044    -0.19700
C1742       C  0.06011130  0.27854357  0.54726557    -0.12000
C1743       C  0.08170486  0.29785043  0.56199210     0.13600
C1744       C  0.07400652  0.31849622  0.59086172    -0.22500
C1745       C  0.99429690  0.29883217  0.61148991    -0.05500
H1746       H  0.01551464  0.26408268  0.55355897     0.15200
C1747       C  0.11310572  0.29728940  0.54805273    -0.15700
H1748       H  0.09022538  0.33406010  0.60078655     0.09500
H1749       H  0.97656469  0.40976324  0.60849972     0.07400
H1750       H  0.01164203  0.42478630  0.59477522     0.08600
H1751       H  0.99429708  0.43644411  0.63906255     0.07600
H1752       H  0.08415575  0.31812670  0.67577045     0.02500
H1753       H  0.05013015  0.30000270  0.68777627     0.03000
H1754       H  0.06689814  0.32429318  0.72260407     0.06500
H1755       H  0.98083048  0.28089998  0.59918001     0.05400
H1756       H  0.98292034  0.31978977  0.60528900    -0.00300
H1757       H  0.99579178  0.29569242  0.64378784     0.01200
H1758       H  0.11983954  0.31761469  0.03556943     0.04800
H1759       H  0.11926266  0.27852570  0.02958521     0.06800
H1760       H  0.12786691  0.29424035  0.57367309     0.07600
C1761       C  0.95440725  0.84924777  0.55546236    -0.22000
C1762       C  0.97424725  0.84874785  0.58694140     0.10000
C1763       C  0.98941755  0.82263575  0.59571362     0.10400
C1764       C  0.98427470  0.79759000  0.57307706    -0.16900
C1765       C  0.96396486  0.79767956  0.54209017    -0.27300
C1766       C  0.94866541  0.82390086  0.53332073     0.18700
C1767       C  0.97810072  0.87508463  0.61199497     0.12700
C1768       C  0.01076735  0.82109060  0.62944269    -0.11700
H1769       H  0.99586399  0.77753779  0.58005875     0.13000
C1770       C  0.92455262  0.82620758  0.00197678    -0.22500
H1771       H  0.94254427  0.86924853  0.54905880     0.08600
C1772       C  0.00040687  0.89550865  0.60443522     0.04900
C1773       C  0.00692317  0.91681757  0.63284841    -0.19700
C1774       C  0.99149634  0.91838427  0.66866862    -0.12000
C1775       C  0.96809631  0.89859209  0.67533340     0.13600
C1776       C  0.96158221  0.87751068  0.64662792    -0.22500
C1777       C  0.01774712  0.89429478  0.56676108    -0.05500
H1778       H  0.02472108  0.93190508  0.62751120     0.15200
C1779       C  0.95072775  0.89725233  0.71312065    -0.15700
H1780       H  0.94454827  0.86163589  0.65237687     0.09500
H1781       H  0.90408234  0.83480967  0.01550679     0.07400
H1782       H  0.91929791  0.80465849  0.98927950     0.08600
H1783       H  0.93144382  0.84112363  0.97799922     0.07600
H1784       H  0.99928884  0.82621857  0.65742806     0.02500
H1785       H  0.02868050  0.83703661  0.62482529     0.03000
H1786       H  0.02078593  0.79904796  0.63225828     0.06500
H1787       H  0.03440823  0.91185473  0.56535729     0.05400
H1788       H  0.00270383  0.89694713  0.54136038    -0.00300
H1789       H  0.02926687  0.87297216  0.56428448     0.01200
H1790       H  0.92734131  0.90230047  0.70692607     0.04800
H1791       H  0.95842310  0.91223821  0.73626192     0.06800
H1792       H  0.95223035  0.87488697  0.72554032     0.07600
C1793       C  0.96280809  0.81288463  0.89550231    -0.22000
C1794       C  0.98888633  0.82829240  0.90155140     0.10000
C1795       C  0.00731055  0.82057444  0.93323891     0.10400
C1796       C  0.99891121  0.79792748  0.95857416    -0.16900
C1797       C  0.97235746  0.78310762  0.95335663    -0.27300
C1798       C  0.95412256  0.79059747  0.92122501     0.18700
C1799       C  0.99516519  0.85391330  0.87627560     0.12700
C1800       C  0.03524548  0.83691979  0.94118344    -0.11700
H1801       H  0.01259661  0.79232513  0.98348406     0.13000
C1802       C  0.92543126  0.77616116  0.41526000    -0.22500
H1803       H  0.94853445  0.81912129  0.87142561     0.08600
C1804       C  0.01608409  0.85305031  0.84568361     0.04900
C1805       C  0.02118842  0.87828805  0.82338779    -0.19700
C1806       C  0.00528869  0.90431599  0.82983139    -0.12000
C1807       C  0.98383131  0.90484595  0.86023443     0.13600
C1808       C  0.97935494  0.87972438  0.88314659    -0.22500
C1809       C  0.03285963  0.82572068  0.83508454    -0.05500
H1810       H  0.03722299  0.87722153  0.79986233     0.15200
C1811       C  0.96569162  0.93163815  0.86938036    -0.15700
H1812       H  0.96320536  0.88008987  0.90658246     0.09500
H1813       H  0.90831039  0.79347141  0.41414910     0.07400
H1814       H  0.91912026  0.76092946  0.43896141     0.08600
H1815       H  0.92552981  0.76417267  0.38689934     0.07600
H1816       H  0.03022592  0.86037814  0.94604586     0.02500
H1817       H  0.05039984  0.83468320  0.91581844     0.03000
H1818       H  0.04668021  0.82846839  0.96767408     0.06500
H1819       H  0.05673346  0.82965243  0.83839167     0.05400
H1820       H  0.02828099  0.81985463  0.80403052    -0.00300
H1821       H  0.02692747  0.80676167  0.85362577     0.01200
H1822       H  0.95095839  0.93680939  0.84437186     0.04800
H1823       H  0.98029199  0.95040669  0.87547892     0.06800
H1824       H  0.95151496  0.92842765  0.89559461     0.07600
C1825       C  0.97347870  0.61443880  0.88096908    -0.22000
C1826       C  0.98031869  0.64224961  0.86636274     0.10000
C1827       C  0.99324741  0.64458042  0.82873320     0.10400
C1828       C  0.99967461  0.61910181  0.80706531    -0.16900
C1829       C  0.99297652  0.59127756  0.82174507    -0.27300
C1830       C  0.97951076  0.58897917  0.85917386     0.18700
C1831       C  0.97459219  0.66841861  0.89157868     0.12700
C1832       C  0.99978480  0.67398945  0.81117781    -0.11700
H1833       H  0.00991325  0.62089619  0.77839956     0.13000
C1834       C  0.97187779  0.56009989  0.87756189    -0.22500
H1835       H  0.96369500  0.61254552  0.90992645     0.08600
C1836       C  0.94584475  0.67853079  0.89942772     0.04900
C1837       C  0.94148499  0.70148352  0.92636875    -0.19700
C1838       C  0.96516507  0.71501571  0.94530154    -0.12000
C1839       C  0.99402921  0.70556597  0.93636241     0.13600
C1840       C  0.99834101  0.68248906  0.90959162    -0.22500
C1841       C  0.91973103  0.66494763  0.87965099    -0.05500
H1842       H  0.91933611  0.70814218  0.93389765     0.15200
C1843       C  0.02187020  0.71799930  0.45700563    -0.15700
H1844       H  0.02042453  0.67470714  0.90377642     0.09500
H1845       H  0.94787489  0.55930969  0.88293994     0.07400
H1846       H  0.98346243  0.55779343  0.90608485     0.08600
H1847       H  0.97808018  0.54117669  0.85903402     0.07600
H1848       H  0.01591622  0.68571164  0.82966288     0.02500
H1849       H  0.97925818  0.68707300  0.80938369     0.03000
H1850       H  0.00907087  0.67201589  0.78109123     0.06500
H1851       H  0.89893016  0.67596612  0.88824453     0.05400
H1852       H  0.91802882  0.64160763  0.88793300    -0.00300
H1853       H  0.92214199  0.66671767  0.84725898     0.01200
H1854       H  0.03384587  0.70059690  0.47316010     0.04800
H1855       H  0.01629571  0.73546578  0.47826186     0.06800
H1856       H  0.03666013  0.72739462  0.43441122     0.07600
loop_ 
_geom_bond_atom_site_label_1 
_geom_bond_atom_site_label_2 
_geom_bond_distance 
_geom_bond_site_symmetry_2 
_ccdc_geom_bond_type 
N1            C2   1.362       .  A
N1          C933   1.361       .  A
N1          C869   1.441       .  S
C2          C910   1.488       .  S
C2          C931   1.381       .  A
C3            C4   1.376       .  A
C3          C930   1.381   1_554  A
C3            H6   1.082       .  S
C4            C5   1.383       .  A
C4            H7   1.082       .  S
C5          N929   1.361   1_554  A
C5          C837   1.491       .  S
N8            C9   1.359       .  A
N8          C940   1.356   1_554  A
N8          C782   1.439       .  S
C9          C814   1.491       .  S
C9          C938   1.385   1_554  A
C10          C11   1.378       .  A
C10         C937   1.385       .  A
C10          H13   1.082       .  S
C11          C12   1.382       .  A
C11          H14   1.082       .  S
C12         N936   1.356       .  A
C12         C750   1.487       .  S
N15          C16   1.359       .  A
N15         C947   1.356       .  A
N15         C709   1.440       .  S
C16         C645   1.488       .  S
C16         C945   1.383       .  A
C17          C18   1.377       .  A
C17         C944   1.383   1_554  A
C17          H20   1.082       .  S
C18          C19   1.381       .  A
C18          H21   1.082       .  S
C19         N943   1.356   1_554  A
C19         C686   1.483       .  S
N22          C23   1.356       .  A
N22         C954   1.358   1_554  A
N22         C613   1.438       .  S
C23         C549   1.483       .  S
C23         C952   1.382   1_554  A
C24          C25   1.378       .  A
C24         C951   1.382       .  A
C24          H27   1.082       .  S
C25          C26   1.382       .  A
C25          H28   1.082       .  S
C26         N950   1.358       .  A
C26         C581   1.487       .  S
N29          C30   1.359       .  A
N29         C961   1.357       .  A
N29         C526   1.436       .  S
C30         C462   1.491       .  S
C30         C959   1.385       .  A
C31          C32   1.377       .  A
C31         C958   1.385   1_554  A
C31          H34   1.082       .  S
C32          C33   1.382       .  A
C32          H35   1.082       .  S
C33         N957   1.357   1_554  A
C33         C494   1.487       .  S
N36          C37   1.360       .  A
N36         C968   1.359   1_554  A
N36         C430   1.441       .  S
C37         C357   1.486       .  S
C37         C966   1.383   1_554  A
C38          C39   1.376       .  A
C38         C965   1.383       .  A
C38          H41   1.082       .  S
C39          C40   1.381       .  A
C39          H42   1.082       .  S
C40         N964   1.359       .  A
C40         C398   1.487       .  S
N43          C44   1.355       .  A
N43         C975   1.359   1_554  A
N43         C293   1.438       .  S
C44         C325   1.484       .  S
C44         C973   1.382   1_554  A
C45          C46   1.380       .  A
C45         C972   1.382       .  A
C45          H48   1.082       .  S
C46          C47   1.383       .  A
C46          H49   1.082       .  S
C47         N971   1.359       .  A
C47         C270   1.489       .  S
N50          C51   1.355       .  A
N50         C982   1.360       .  A
N50         C197   1.442       .  S
C51         C229   1.476       .  S
C51         C980   1.380       .  A
C52          C53   1.376       .  A
C52         C979   1.380   1_554  A
C52          H55   1.082       .  S
C53          C54   1.384       .  A
C53          H56   1.082       .  S
C54         N978   1.360   1_554  A
C54         C165   1.486       .  S
O57         Ni63   1.923       .  S
O57          C78   1.270       .  A
O58         Ni81   1.907       .  S
O58          C67   1.268       .  A
O59         Ni63   1.928       .  S
O59         Ni81   1.915       .  S
O59         Ni75   1.923       .  S
O59          H82   0.968       .  S
C60         C517   1.479       .  S
C60          O77   1.269       .  A
C60          O69   1.275       .  A
O61         Ni80   1.939       .  S
O61          C67   1.273       .  A
O62         Ni80   1.909       .  S
O62          C64   1.270       .  A
Ni63         O66   1.932       .  S
Ni63         O68   1.897       .  S
C64         C485   1.488       .  S
C64          O74   1.277       .  A
O65         Ni81   1.897       .  S
O65          C71   1.265       .  A
O66          C71   1.270       .  A
C67         C334   1.484       .  S
O68          C70   1.268       .  A
O69         Ni80   1.938       .  S
C70         C389   1.492       .  S
C70          O76   1.282       .  A
C71         C421   1.485       .  S
H72          O73   0.964       .  S
O73         Ni81   1.908       .  S
O73         Ni75   1.909       .  S
O73         Ni80   1.925       .  S
O74         Ni75   1.948       .  S
Ni75         O79   1.906       .  S
Ni75         O77   1.901       .  S
O76         Ni81   1.959       .  S
C78         C238   1.484       .  S
C78          O79   1.266       .  A
O83         Ni89   1.937       .  S
O83         C104   1.272       .  A
O84        Ni107   1.914       .  S
O84          C93   1.268       .  A
O85         Ni89   1.914       .  S
O85        Ni107   1.912   1_565  S
O85        Ni101   1.904       .  S
O85         H108   0.966       .  S
C86         C718   1.487   1_545  S
C86         O103   1.270   1_545  A
C86          O95   1.280       .  A
O87        Ni106   1.946       .  S
O87          C93   1.275       .  A
O88        Ni106   1.904       .  S
O88          C90   1.269   1_545  A
Ni89         O92   1.926       .  S
Ni89         O94   1.904       .  S
C90         C677   1.480       .  S
C90         O100   1.274       .  A
O91        Ni107   1.909       .  S
O91          C97   1.272   1_545  A
O92          C97   1.276       .  A
C93         C366   1.487       .  S
O94          C96   1.269   1_565  A
O95        Ni106   1.940       .  S
C96         C590   1.486       .  S
C96         O102   1.275       .  A
C97         C622   1.485       .  S
H98          O99   0.966       .  S
O99        Ni107   1.909       .  S
O99        Ni101   1.915   1_545  S
O99        Ni106   1.914       .  S
O100       Ni101   1.938       .  S
Ni101       O105   1.916       .  S
Ni101       O103   1.899       .  S
O102       Ni107   1.939       .  S
C104        C453   1.486       .  S
C104        O105   1.268       .  A
O109       Ni115   1.940       .  S
O109        C130   1.274   1_545  A
O110       Ni133   1.904       .  S
O110        C119   1.267       .  A
O111       Ni115   1.912       .  S
O111       Ni133   1.906   1_655  S
O111       Ni127   1.905   1_545  S
O111        H134   0.966       .  S
C112        C878   1.496       .  S
C112        O129   1.271   1_455  A
C112        O121   1.278       .  A
O113       Ni132   1.945       .  S
O113        C119   1.275   1_565  A
O114       Ni132   1.911       .  S
O114        C116   1.271       .  A
Ni115       O118   1.931       .  S
Ni115       O120   1.909       .  S
C116        C846   1.487   1_455  S
C116        O126   1.274   1_455  A
O117       Ni133   1.912       .  S
O117        C123   1.274       .  A
O118        C123   1.277   1_655  A
C119        C558   1.488       .  S
O120        C122   1.269   1_655  A
O121       Ni132   1.935       .  S
C122        C741   1.489       .  S
C122        O128   1.273       .  A
C123        C773   1.487       .  S
H124        O125   0.966       .  S
O125       Ni133   1.913   1_565  S
O125       Ni127   1.911   1_455  S
O125       Ni132   1.916       .  S
O126       Ni127   1.934       .  S
Ni127       O131   1.908       .  S
Ni127       O129   1.910       .  S
O128       Ni133   1.935       .  S
C130        C654   1.478       .  S
C130        O131   1.266       .  A
O135       Ni141   1.943       .  S
O135        C156   1.274       .  A
O136       Ni159   1.910       .  S
O136        C145   1.268       .  A
O137       Ni141   1.915       .  S
O137       Ni159   1.911       .  S
O137       Ni153   1.913   1_455  S
O137        H160   0.966       .  S
C138        C206   1.486       .  S
C138        O155   1.274       .  A
C138        O147   1.278       .  A
O139       Ni158   1.946       .  S
O139        C145   1.275   1_655  A
O140       Ni158   1.903       .  S
O140        C142   1.269       .  A
Ni141       O144   1.936       .  S
Ni141       O146   1.907       .  S
C142        C174   1.495       .  S
C142        O152   1.276       .  A
O143       Ni159   1.900       .  S
O143        C149   1.269       .  A
O144        C149   1.277       .  A
C145        C805   1.487       .  S
O146        C148   1.270       .  A
O147       Ni158   1.940       .  S
C148        C261   1.493       .  S
C148        O154   1.280       .  A
C149        C302   1.485       .  S
H150        O151   0.966       .  S
O151       Ni159   1.905   1_655  S
O151       Ni153   1.909       .  S
O151       Ni158   1.916       .  S
O152       Ni153   1.945       .  S
Ni153       O157   1.914       .  S
Ni153       O155   1.906       .  S
O154       Ni159   1.951       .  S
C156        C901   1.484   1_455  S
C156        O157   1.270   1_455  A
C161        C162   1.403       .  A
C161        C166   1.408       .  A
C161        H171   1.084       .  S
C162        C167   1.485       .  S
C162        C163   1.411       .  A
C163        C164   1.401       .  A
C163        C168   1.508       .  S
C164        C165   1.404       .  A
C164        H169   1.084       .  S
C165        C166   1.416       .  A
C166       C1098   1.505       .  S
C167        C172   1.408       .  A
C167        C176   1.401       .  A
C168        H184   1.110       .  S
C168        H185   1.110       .  S
C168        H186   1.111       .  S
C170       C1094   1.505       .  S
C170        H181   1.109       .  S
C170        H183   1.107       .  S
C170       H1110   1.110       .  S
C172        C173   1.405       .  A
C172        C177   1.507       .  S
C173        C174   1.411       .  A
C173        H178   1.084       .  S
C174        C175   1.421       .  A
C175        C176   1.408       .  A
C175        C179   1.508       .  S
C176        H180   1.084       .  S
C177        H187   1.111       .  S
C177        H188   1.110       .  S
C177        H189   1.111       .  S
C179        H190   1.110       .  S
C179        H191   1.111       .  S
C179        H192   1.111       .  S
H182       C1098   1.110       .  S
C193        C194   1.402       .  A
C193        C198   1.403       .  A
C193        H203   1.084       .  S
C194        C199   1.484       .  S
C194        C195   1.411       .  A
C195        C196   1.403       .  A
C195        C200   1.506       .  S
C196        C197   1.404       .  A
C196        H201   1.082       .  S
C197        C198   1.413       .  A
C198       C1130   1.504       .  S
C199        C204   1.411       .  A
C199        C208   1.403       .  A
C200        H216   1.110       .  S
C200        H217   1.110       .  S
C200        H218   1.111       .  S
C202       C1126   1.504   1_554  S
C202        H213   1.111       .  S
C202        H214   1.110   1_554  S
C202        H215   1.107       .  S
C204        C205   1.401       .  A
C204        C209   1.507       .  S
C205        C206   1.404       .  A
C205        H210   1.083       .  S
C206        C207   1.420       .  A
C207        C208   1.409       .  A
C207        C211   1.508       .  S
C208        H212   1.084       .  S
C209        H219   1.111       .  S
C209        H220   1.110       .  S
C209        H221   1.110       .  S
C211        H222   1.111       .  S
C211        H223   1.109       .  S
C211        H224   1.111       .  S
C225        C226   1.401       .  A
C225        C230   1.402       .  A
C225        H235   1.085       .  S
C226        C231   1.480       .  S
C226        C227   1.410       .  A
C227        C228   1.404       .  A
C227        C232   1.505       .  S
C228        C229   1.402       .  A
C228        H233   1.084       .  S
C229        C230   1.414       .  A
C230        C234   1.508       .  S
C231        C236   1.408       .  A
C231        C240   1.401       .  A
C232        H248   1.110       .  S
C232        H249   1.110       .  S
C232        H250   1.111       .  S
C234        H245   1.110       .  S
C234        H246   1.110       .  S
C234        H247   1.108       .  S
C236        C237   1.403       .  A
C236        C241   1.506       .  S
C237        C238   1.407       .  A
C237        H242   1.084       .  S
C238        C239   1.418       .  A
C239        C240   1.405       .  A
C239        C243   1.507       .  S
C240        H244   1.084       .  S
C241        H251   1.111       .  S
C241        H252   1.110       .  S
C241        H253   1.110       .  S
C243        H254   1.111       .  S
C243        H255   1.110       .  S
C243        H256   1.110       .  S
C257        C258   1.401       .  A
C257        C262   1.408       .  A
C257        H267   1.084       .  S
C258        C263   1.493       .  S
C258        C259   1.413       .  A
C259        C260   1.410       .  A
C259        C264   1.506       .  S
C260        C261   1.407       .  A
C260        H265   1.084       .  S
C261        C262   1.422       .  A
C262        C266   1.508       .  S
C263        C268   1.412       .  A
C263        C272   1.404       .  A
C264        H280   1.110       .  S
C264        H281   1.110       .  S
C264        H282   1.111       .  S
C266        H277   1.110       .  S
C266        H278   1.111       .  S
C266        H279   1.108       .  S
C268        C269   1.405       .  A
C268        C273   1.506       .  S
C269        C270   1.404       .  A
C269        H274   1.084       .  S
C270        C271   1.417       .  A
C271        C272   1.410       .  A
C271        C275   1.506       .  S
C272        H276   1.084       .  S
C273        H283   1.111       .  S
C273        H284   1.110       .  S
C273        H285   1.110       .  S
C275        H286   1.111       .  S
C275        H287   1.107       .  S
C275        H288   1.110       .  S
C289        C290   1.402       .  A
C289        C294   1.403       .  A
C289        H299   1.084       .  S
C290        C295   1.479       .  S
C290        C291   1.411       .  A
C291        C292   1.401       .  A
C291        C296   1.506       .  S
C292        C293   1.402       .  A
C292       H1225   1.084       .  S
C293        C294   1.412       .  A
C294        C298   1.504       .  S
C295        C300   1.409       .  A
C295        C304   1.399       .  A
C296        H312   1.110       .  S
C296        H313   1.110       .  S
C296        H314   1.111       .  S
H297       C1220   1.083       .  S
C298        H309   1.110       .  S
C298        H310   1.110   1_554  S
C298        H311   1.108   1_554  S
C300        C301   1.405       .  A
C300        C305   1.506       .  S
C301        C302   1.407       .  A
C301        H306   1.084       .  S
C302        C303   1.421       .  A
C303        C304   1.402       .  A
C303        C307   1.510       .  S
C304        H308   1.085       .  S
C305        H315   1.111       .  S
C305        H316   1.110       .  S
C305        H317   1.110       .  S
C307        H318   1.111       .  S
C307        H319   1.110       .  S
C307        H320   1.109       .  S
C321        C322   1.403       .  A
C321        C326   1.406       .  A
C321        H331   1.084       .  S
C322        C327   1.488       .  S
C322        C323   1.414       .  A
C323        C324   1.406       .  A
C323        C328   1.507       .  S
C324        C325   1.403       .  A
C324       H1257   1.084       .  S
C325        C326   1.415       .  A
C326        C330   1.506       .  S
C327        C332   1.412       .  A
C327        C336   1.402       .  A
C328        H344   1.110       .  S
C328        H345   1.108       .  S
C328       H1274   1.111       .  S
H329       C1252   1.084       .  S
C330        H341   1.110       .  S
C330        H342   1.110       .  S
C330        H343   1.108       .  S
C332        C333   1.408       .  A
C332        C337   1.506       .  S
C333        C334   1.404       .  A
C333        H338   1.084       .  S
C334        C335   1.414       .  A
C335        C336   1.405       .  A
C335        C339   1.502       .  S
C336        H340   1.084       .  S
C337        H347   1.111       .  S
C337        H348   1.110       .  S
C337        H349   1.108       .  S
C339        H350   1.108       .  S
C339        H351   1.110       .  S
C339        H352   1.110       .  S
H346       C1256   1.111       .  S
C353        C354   1.401       .  A
C353        C358   1.404       .  A
C353        H363   1.084       .  S
C354        C359   1.492       .  S
C354        C355   1.415       .  A
C355        C356   1.409       .  A
C355        C360   1.506       .  S
C356        C357   1.404       .  A
C356        H361   1.084       .  S
C357        C358   1.418       .  A
C358       C1290   1.508       .  S
C359        C364   1.414       .  A
C359        C368   1.401       .  A
C360        H376   1.110       .  S
C360        H377   1.110       .  S
C360        H378   1.111       .  S
C362       C1286   1.508       .  S
C362        H373   1.110       .  S
C362        H374   1.110       .  S
C362        H375   1.107       .  S
C364        C365   1.411       .  A
C364        C369   1.505       .  S
C365        C366   1.405       .  A
C365        H370   1.084       .  S
C366        C367   1.417       .  A
C367        C368   1.403       .  A
C367        C371   1.505       .  S
C368        H372   1.085       .  S
C369        H379   1.111       .  S
C369        H380   1.110       .  S
C369        H381   1.110       .  S
C371        H382   1.111       .  S
C371        H383   1.104       .  S
C371        H384   1.110       .  S
C385        C386   1.400       .  A
C385        C390   1.408       .  A
C385        H395   1.084       .  S
C386        C391   1.488       .  S
C386        C387   1.412       .  A
C387        C388   1.406       .  A
C387        C392   1.506       .  S
C388        C389   1.406       .  A
C388        H393   1.084       .  S
C389        C390   1.423       .  A
C390        C394   1.509       .  S
C391        C396   1.411       .  A
C391        C400   1.403       .  A
C392        H408   1.110       .  S
C392        H409   1.110       .  S
C392        H410   1.111       .  S
C394        H405   1.109       .  S
C394        H406   1.111       .  S
C394        H407   1.111       .  S
C396        C397   1.404       .  A
C396        C401   1.507       .  S
C397        C398   1.404       .  A
C397        H402   1.084       .  S
C398        C399   1.417       .  A
C399        C400   1.408       .  A
C399        C403   1.505       .  S
C400        H404   1.084       .  S
C401        H411   1.111       .  S
C401        H412   1.110       .  S
C401        H413   1.110       .  S
C403        H414   1.110       .  S
C403        H415   1.106       .  S
C403        H416   1.110       .  S
C417        C418   1.400       .  A
C417        C422   1.406       .  A
C417        H427   1.084       .  S
C418        C423   1.479       .  S
C418        C419   1.409       .  A
C419        C420   1.401       .  A
C419        C424   1.508       .  S
C420        C421   1.406       .  A
C420        H425   1.083       .  S
C421        C422   1.420       .  A
C422        C426   1.508       .  S
C423        C428   1.409       .  A
C423        C432   1.401       .  A
C424        H440   1.110       .  S
C424        H441   1.109       .  S
C424        H442   1.110       .  S
C426        H437   1.111       .  S
C426        H438   1.111       .  S
C426        H439   1.110       .  S
C428        C429   1.401       .  A
C428        C433   1.507       .  S
C429        C430   1.402       .  A
C429       H1362   1.083       .  S
C430        C431   1.417       .  A
C431        C432   1.404       .  A
C431        C435   1.505       .  S
C432        H436   1.085       .  S
C433        H444   1.110       .  S
C433        H445   1.110       .  S
C433       H1371   1.111       .  S
H434       C1357   1.083       .  S
C435        H446   1.110       .  S
C435        H447   1.103       .  S
C435        H448   1.111       .  S
H443       C1361   1.111       .  S
C449        C450   1.404       .  A
C449        C454   1.411       .  A
C449        H459   1.084       .  S
C450        C455   1.491       .  S
C450        C451   1.414       .  A
C451        C452   1.405       .  A
C451        C456   1.509       .  S
C452        C453   1.404       .  A
C452        H457   1.084       .  S
C453        C454   1.416       .  A
C454        C458   1.506       .  S
C455        C460   1.414       .  A
C455        C464   1.400       .  A
C456        H472   1.110       .  S
C456        H473   1.108       .  S
C456        H474   1.111       .  S
C458        H469   1.110       .  S
C458        H470   1.111       .  S
C458        H471   1.110       .  S
C460        C461   1.410       .  A
C460        C465   1.507       .  S
C461        C462   1.406       .  A
C461        H466   1.083       .  S
C462        C463   1.418       .  A
C463        C464   1.403       .  A
C463       C1395   1.507       .  S
C464        H468   1.085       .  S
C465        H475   1.111       .  S
C465        H476   1.110       .  S
C465        H477   1.108       .  S
C467       C1391   1.507       .  S
C467        H478   1.111       .  S
C467        H479   1.108       .  S
C467        H480   1.110       .  S
C481        C482   1.402       .  A
C481        C486   1.407       .  A
C481        H491   1.084       .  S
C482        C487   1.491       .  S
C482        C483   1.413       .  A
C483        C484   1.408       .  A
C483        C488   1.507       .  S
C484        C485   1.406       .  A
C484        H489   1.084       .  S
C485        C486   1.418       .  A
C486        C490   1.508       .  S
C487        C492   1.413       .  A
C487        C496   1.402       .  A
C488        H504   1.110       .  S
C488        H505   1.110       .  S
C488        H506   1.111       .  S
C490        H501   1.111       .  S
C490        H502   1.110       .  S
C490        H503   1.108       .  S
C492        C493   1.410       .  A
C492        C497   1.505       .  S
C493        C494   1.405       .  A
C493        H498   1.084       .  S
C494        C495   1.416       .  A
C495        C496   1.403       .  A
C495        C499   1.508       .  S
C496        H500   1.085       .  S
C497        H507   1.111       .  S
C497        H508   1.110       .  S
C497        H509   1.110       .  S
C499        H512   1.110       .  S
C499       H1438   1.111       .  S
C499       H1439   1.108       .  S
H510       C1427   1.111       .  S
H511       C1427   1.108       .  S
C513        C514   1.401       .  A
C513        C518   1.403       .  A
C513        H523   1.085       .  S
C514        C519   1.481       .  S
C514        C515   1.409       .  A
C515        C516   1.404       .  A
C515        C520   1.506       .  S
C516        C517   1.406       .  A
C516        H521   1.084       .  S
C517        C518   1.418       .  A
C518        C522   1.508       .  S
C519        C524   1.410       .  A
C519        C528   1.402       .  A
C520        H536   1.110       .  S
C520        H537   1.110       .  S
C520        H538   1.111       .  S
C522        H533   1.111       .  S
C522        H534   1.110       .  S
C522        H535   1.107       .  S
C524        C525   1.403       .  A
C524        C529   1.505       .  S
C525        C526   1.402       .  A
C525        H530   1.084       .  S
C526        C527   1.412       .  A
C527        C528   1.403       .  A
C527       C1459   1.505       .  S
C528        H532   1.084       .  S
C529        H539   1.111       .  S
C529        H540   1.110       .  S
C529        H541   1.110       .  S
C531       C1455   1.505       .  S
C531        H542   1.111       .  S
C531        H543   1.107       .  S
C531        H544   1.110       .  S
C545        C546   1.400       .  A
C545        C550   1.403       .  A
C545        H555   1.085   1_545  S
C546        C551   1.487       .  S
C546        C547   1.413       .  A
C547        C548   1.409       .  A
C547        C552   1.506       .  S
C548        C549   1.404       .  A
C548        H553   1.083       .  S
C549        C550   1.416       .  A
C550       C1482   1.508       .  S
C551        C556   1.412       .  A
C551        C560   1.401       .  A
C552        H568   1.110       .  S
C552        H569   1.109       .  S
C552        H570   1.111       .  S
C554       C1478   1.508       .  S
C554        H565   1.110       .  S
C554        H566   1.110   1_545  S
C554        H567   1.107       .  S
C556        C557   1.406       .  A
C556        C561   1.508       .  S
C557        C558   1.407       .  A
C557        H562   1.084       .  S
C558        C559   1.420   1_545  A
C559        C560   1.407   1_565  A
C559        C563   1.508       .  S
C560        H564   1.084   1_545  S
C561        H571   1.111       .  S
C561        H572   1.110       .  S
C561        H573   1.109       .  S
C563        H574   1.110       .  S
C563        H575   1.106       .  S
C563        H576   1.111       .  S
C577        C578   1.403       .  A
C577        C582   1.408       .  A
C577        H587   1.084       .  S
C578        C583   1.485       .  S
C578        C579   1.411       .  A
C579        C580   1.402       .  A
C579        C584   1.507       .  S
C580        C581   1.404       .  A
C580        H585   1.084       .  S
C581        C582   1.417       .  A
C582        C586   1.505       .  S
C583        C588   1.412       .  A
C583        C592   1.399       .  A
C584        H600   1.110   1_545  S
C584        H601   1.110       .  S
C584        H602   1.111   1_545  S
C586        H597   1.110       .  S
C586        H598   1.111       .  S
C586        H599   1.107       .  S
C588        C589   1.407       .  A
C588        C593   1.506       .  S
C589        C590   1.406       .  A
C589        H594   1.084       .  S
C590        C591   1.420   1_545  A
C591        C592   1.404   1_565  A
C591        C595   1.509       .  S
C592        H596   1.084   1_545  S
C593        H603   1.111       .  S
C593        H604   1.110       .  S
C593        H605   1.110       .  S
C595        H606   1.111       .  S
C595        H607   1.108       .  S
C595        H608   1.110       .  S
C609        C610   1.401   1_565  A
C609        C614   1.404   1_565  A
C609        H619   1.084       .  S
C610        C615   1.478       .  S
C610        C611   1.411       .  A
C611        C612   1.400       .  A
C611        C616   1.507       .  S
C612        C613   1.401       .  A
C612       H1545   1.082       .  S
C613        C614   1.413       .  A
C614        C618   1.504   1_544  S
C615        C620   1.407   1_545  A
C615        C624   1.400       .  A
C616        H632   1.110       .  S
C616        H633   1.110       .  S
C616        H634   1.111       .  S
H617       C1540   1.083       .  S
C618        H629   1.110   1_556  S
C618        H630   1.110       .  S
C618        H631   1.108       .  S
C620        C621   1.403       .  A
C620        C625   1.506       .  S
C621        C622   1.409       .  A
C621        H626   1.084       .  S
C622        C623   1.420   1_565  A
C623        C624   1.403       .  A
C623        C627   1.509       .  S
C624        H628   1.084       .  S
C625        H635   1.111       .  S
C625        H636   1.110       .  S
C625        H637   1.110       .  S
C627        H638   1.111       .  S
C627        H639   1.110       .  S
C627        H640   1.109       .  S
C641        C642   1.403       .  A
C641        C646   1.407       .  A
C641        H651   1.085   1_565  S
C642        C647   1.487       .  S
C642        C643   1.411       .  A
C643        C644   1.405       .  A
C643        C648   1.507       .  S
C644        C645   1.405       .  A
C644        H649   1.084       .  S
C645        C646   1.418       .  A
C646        C650   1.507   1_565  S
C647        C652   1.413       .  A
C647        C656   1.401       .  A
C648        H664   1.110       .  S
C648        H665   1.108       .  S
C648        H666   1.111       .  S
C650        H661   1.110       .  S
C650        H662   1.111       .  S
C650        H663   1.105       .  S
C652        C653   1.410       .  A
C652        C657   1.506       .  S
C653        C654   1.406       .  A
C653        H658   1.084       .  S
C654        C655   1.415       .  A
C655        C656   1.402       .  A
C655        C659   1.509   1_565  S
C656        H660   1.085       .  S
C657        H667   1.111       .  S
C657        H668   1.110       .  S
C657        H669   1.108       .  S
C659        H670   1.110       .  S
C659        H671   1.108       .  S
C659        H672   1.110   1_545  S
C673        C674   1.400       .  A
C673        C678   1.403       .  A
C673        H683   1.084       .  S
C674        C679   1.484       .  S
C674        C675   1.412       .  A
C675        C676   1.406       .  A
C675        C680   1.506       .  S
C676        C677   1.404       .  A
C676        H681   1.084       .  S
C677        C678   1.416       .  A
C678        C682   1.504   1_565  S
C679        C684   1.412       .  A
C679        C688   1.400       .  A
C680        H696   1.110       .  S
C680        H697   1.110       .  S
C680        H698   1.111       .  S
C682        H693   1.110   1_545  S
C682        H694   1.110       .  S
C682        H695   1.107       .  S
C684        C685   1.409       .  A
C684        C689   1.505       .  S
C685        C686   1.404       .  A
C685        H690   1.084       .  S
C686        C687   1.415       .  A
C687        C688   1.401       .  A
C687        C691   1.508   1_565  S
C688        H692   1.085   1_565  S
C689        H699   1.111       .  S
C689        H700   1.110       .  S
C689        H701   1.110       .  S
C691        H702   1.110       .  S
C691        H703   1.108       .  S
C691        H704   1.110       .  S
C705        C706   1.401       .  A
C705        C710   1.403       .  A
C705        H715   1.084       .  S
C706        C711   1.479       .  S
C706        C707   1.409       .  A
C707        C708   1.402       .  A
C707        C712   1.506   1_565  S
C708        C709   1.404       .  A
C708       H1641   1.083   1_565  S
C709        C710   1.414       .  A
C710        C714   1.506       .  S
C711        C716   1.408   1_565  A
C711        C720   1.399       .  A
C712        H728   1.110       .  S
C712        H729   1.110       .  S
C712       H1658   1.111       .  S
H713       C1636   1.083   1_545  S
C714        H725   1.110       .  S
C714        H726   1.111       .  S
C714        H727   1.106       .  S
C716        C717   1.404       .  A
C716        C721   1.506       .  S
C717        C718   1.408   1_545  A
C717        H722   1.084       .  S
C718        C719   1.421       .  A
C719        C720   1.404       .  A
C719        C723   1.509       .  S
C720        H724   1.084       .  S
C721        H731   1.111       .  S
C721        H732   1.110   1_545  S
C721        H733   1.110       .  S
C723        H734   1.110       .  S
C723        H735   1.110       .  S
C723        H736   1.111       .  S
H730       C1640   1.111       .  S
C737        C738   1.402       .  A
C737        C742   1.407       .  A
C737        H747   1.084       .  S
C738        C743   1.486       .  S
C738        C739   1.410       .  A
C739        C740   1.406       .  A
C739        C744   1.507   1_455  S
C740        C741   1.407       .  A
C740        H745   1.084   1_455  S
C741        C742   1.419       .  A
C742        C746   1.508       .  S
C743        C748   1.412       .  A
C743        C752   1.400       .  A
C744        H760   1.110       .  S
C744        H761   1.110   1_655  S
C744        H762   1.111       .  S
C746        H757   1.110       .  S
C746        H758   1.111       .  S
C746        H759   1.111       .  S
C748        C749   1.409       .  A
C748        C753   1.505       .  S
C749        C750   1.406       .  A
C749        H754   1.084       .  S
C750        C751   1.416       .  A
C751        C752   1.401       .  A
C751        C755   1.508       .  S
C752        H756   1.085       .  S
C753        H763   1.111       .  S
C753        H764   1.110       .  S
C753        H765   1.110       .  S
C755        H766   1.110       .  S
C755        H767   1.107       .  S
C755        H768   1.111   1_455  S
C769        C770   1.398       .  A
C769        C774   1.404   1_455  A
C769        H779   1.084   1_455  S
C770        C775   1.480       .  S
C770        C771   1.410       .  A
C771        C772   1.405       .  A
C771        C776   1.508       .  S
C772        C773   1.408       .  A
C772        H777   1.084       .  S
C773        C774   1.420   1_455  A
C774        C778   1.508       .  S
C775        C780   1.410       .  A
C775        C784   1.400       .  A
C776        H792   1.110       .  S
C776        H793   1.111       .  S
C776        H794   1.111       .  S
C778        H789   1.109       .  S
C778        H790   1.111       .  S
C778        H791   1.111       .  S
C780        C781   1.404       .  A
C780        C785   1.505   1_455  S
C781        C782   1.404       .  A
C781        H786   1.084       .  S
C782        C783   1.414       .  A
C783        C784   1.401       .  A
C783       C1715   1.506       .  S
C784        H788   1.085       .  S
C785        H795   1.111       .  S
C785        H796   1.110       .  S
C785        H797   1.110       .  S
C787       C1711   1.506       .  S
C787        H799   1.105       .  S
C787        H800   1.111       .  S
C787       H1726   1.110       .  S
H798       C1715   1.110       .  S
C801        C802   1.402       .  A
C801        C806   1.405       .  A
C801        H811   1.085       .  S
C802        C807   1.492       .  S
C802        C803   1.412       .  A
C803        C804   1.410       .  A
C803        C808   1.505       .  S
C804        C805   1.406       .  A
C804        H809   1.084       .  S
C805        C806   1.420       .  A
C806        C810   1.509       .  S
C807        C812   1.413       .  A
C807        C816   1.401       .  A
C808        H824   1.110       .  S
C808        H825   1.110       .  S
C808        H826   1.111       .  S
C810        H821   1.110   1_455  S
C810        H822   1.111       .  S
C810        H823   1.107   1_455  S
C812        C813   1.409       .  A
C812        C817   1.505   1_455  S
C813        C814   1.405       .  A
C813        H818   1.083       .  S
C814        C815   1.419       .  A
C815        C816   1.405       .  A
C815        C819   1.507       .  S
C816        H820   1.084       .  S
C817        H827   1.111       .  S
C817        H828   1.110       .  S
C817        H829   1.110       .  S
C819        H832   1.111       .  S
C819       H1758   1.110       .  S
C819       H1759   1.107       .  S
H830       C1747   1.110       .  S
H831       C1747   1.108       .  S
C833        C834   1.403       .  A
C833        C838   1.410       .  A
C833        H843   1.084       .  S
C834        C839   1.488       .  S
C834        C835   1.411       .  A
C835        C836   1.403       .  A
C835        C840   1.508   1_655  S
C836        C837   1.404       .  A
C836        H841   1.084       .  S
C837        C838   1.419       .  A
C838       C1770   1.504       .  S
C839        C844   1.409   1_655  A
C839        C848   1.401       .  A
C840        H856   1.110   1_455  S
C840        H857   1.110       .  S
C840        H858   1.111       .  S
C842       C1766   1.504       .  S
C842        H853   1.110       .  S
C842        H854   1.105       .  S
C842        H855   1.111       .  S
C844        C845   1.406       .  A
C844        C849   1.506       .  S
C845        C846   1.408   1_455  A
C845        H850   1.084       .  S
C846        C847   1.422       .  A
C847        C848   1.406       .  A
C847        C851   1.510       .  S
C848        H852   1.085       .  S
C849        H859   1.111       .  S
C849        H860   1.110       .  S
C849        H861   1.110       .  S
C851        H862   1.111       .  S
C851        H863   1.103       .  S
C851        H864   1.111       .  S
C865        C866   1.401       .  A
C865        C870   1.403       .  A
C865        H875   1.085       .  S
C866        C871   1.485       .  S
C866        C867   1.412   1_655  A
C867        C868   1.404   1_455  A
C867        C872   1.506       .  S
C868        C869   1.403       .  A
C868        H873   1.083   1_655  S
C869        C870   1.416       .  A
C870       C1802   1.506       .  S
C871        C876   1.411   1_655  A
C871        C880   1.401       .  A
C872        H888   1.110       .  S
C872        H889   1.109       .  S
C872        H890   1.111       .  S
C874       C1798   1.506       .  S
C874        H885   1.111       .  S
C874        H886   1.106       .  S
C874        H887   1.110       .  S
C876        C877   1.404       .  A
C876        C881   1.507       .  S
C877        C878   1.410       .  A
C877        H882   1.084       .  S
C878        C879   1.423   1_455  A
C879        C880   1.406       .  A
C879        C883   1.509       .  S
C880        H884   1.085       .  S
C881        H891   1.110       .  S
C881        H892   1.110       .  S
C881        H893   1.108       .  S
C883        H894   1.110       .  S
C883        H895   1.110       .  S
C883        H896   1.111       .  S
C897        C898   1.405       .  A
C897        C902   1.408       .  A
C897        H907   1.084       .  S
C898        C903   1.495       .  S
C898        C899   1.413       .  A
C899        C900   1.409   1_655  A
C899        C904   1.505   1_655  S
C900        C901   1.404   1_455  A
C900        H905   1.084       .  S
C901        C902   1.417       .  A
C902        C906   1.507       .  S
C903        C908   1.413       .  A
C903        C912   1.405       .  A
C904        H920   1.109       .  S
C904        H921   1.111   1_455  S
C904        H922   1.111       .  S
C906        H917   1.110       .  S
C906        H918   1.110       .  S
C906        H919   1.107       .  S
C908        C909   1.408       .  A
C908        C913   1.506       .  S
C909        C910   1.405       .  A
C909        H914   1.084       .  S
C910        C911   1.416       .  A
C911        C912   1.409       .  A
C911       C1843   1.507   1_655  S
C912        H916   1.084   1_655  S
C913        H923   1.111       .  S
C913        H924   1.109       .  S
C913        H925   1.110       .  S
C915       C1839   1.507   1_455  S
C915        H926   1.110       .  S
C915        H927   1.107       .  S
C915        H928   1.110       .  S
N929        C930   1.361       .  A
N929       C1797   1.441       .  S
C930       C1838   1.487       .  S
C931        C932   1.376       .  A
C931        H934   1.082       .  S
C932        C933   1.383       .  A
C932        H935   1.082       .  S
C933       C1765   1.492       .  S
N936        C937   1.360       .  A
N936       C1710   1.439       .  S
C937       C1742   1.492       .  S
C938        C939   1.378       .  A
C938        H941   1.082       .  S
C939        C940   1.382       .  A
C939        H942   1.082       .  S
C940       C1678   1.487       .  S
N943        C944   1.359       .  A
N943       C1637   1.439       .  S
C944       C1573   1.488       .  S
C945        C946   1.377       .  A
C945        H948   1.082       .  S
C946        C947   1.381       .  A
C946        H949   1.082       .  S
C947       C1614   1.483       .  S
N950        C951   1.356       .  A
N950       C1541   1.438       .  S
C951       C1477   1.483       .  S
C952        C953   1.378       .  A
C952        H955   1.082       .  S
C953        C954   1.382       .  A
C953        H956   1.082       .  S
C954       C1509   1.486       .  S
N957        C958   1.359       .  A
N957       C1454   1.437       .  S
C958       C1390   1.491       .  S
C959        C960   1.377       .  A
C959        H962   1.082       .  S
C960        C961   1.382       .  A
C960        H963   1.082       .  S
C961       C1422   1.487       .  S
N964        C965   1.359       .  A
N964       C1358   1.440       .  S
C965       C1285   1.486       .  S
C966        C967   1.376       .  A
C966        H969   1.082       .  S
C967        C968   1.381       .  A
C967        H970   1.082       .  S
C968       C1326   1.487       .  S
N971        C972   1.355       .  A
N971       C1221   1.437       .  S
C972       C1253   1.483       .  S
C973        C974   1.379       .  A
C973        H976   1.082       .  S
C974        C975   1.382       .  A
C974        H977   1.082       .  S
C975       C1198   1.488       .  S
N978        C979   1.355       .  A
N978       C1125   1.442       .  S
C979       C1157   1.477       .  S
C980        C981   1.376       .  A
C980        H983   1.082       .  S
C981        C982   1.384       .  A
C981        H984   1.082       .  S
C982       C1093   1.485       .  S
O985       Ni991   1.922       .  S
O985       C1006   1.270       .  A
O986      Ni1009   1.907       .  S
O986        C995   1.267       .  A
O987       Ni991   1.928       .  S
O987      Ni1009   1.915       .  S
O987      Ni1003   1.923       .  S
O987       H1010   0.968       .  S
C988       C1445   1.480       .  S
C988       O1005   1.269       .  A
C988        O997   1.275       .  A
O989      Ni1008   1.940       .  S
O989        C995   1.274       .  A
O990      Ni1008   1.909       .  S
O990        C992   1.271       .  A
Ni991       O994   1.931       .  S
Ni991       O996   1.897       .  S
C992       C1413   1.488       .  S
C992       O1002   1.278       .  A
O993      Ni1009   1.896       .  S
O993        C999   1.265       .  A
O994        C999   1.270       .  A
C995       C1262   1.485       .  S
O996        C998   1.268       .  A
O997      Ni1008   1.939       .  S
C998       C1317   1.492       .  S
C998       O1004   1.282       .  A
C999       C1349   1.485       .  S
H1000      O1001   0.964       .  S
O1001     Ni1009   1.908       .  S
O1001     Ni1003   1.910       .  S
O1001     Ni1008   1.925       .  S
O1002     Ni1003   1.950       .  S
Ni1003     O1007   1.907       .  S
Ni1003     O1005   1.902       .  S
O1004     Ni1009   1.958       .  S
C1006      C1166   1.485       .  S
C1006      O1007   1.267       .  A
O1011     Ni1017   1.938       .  S
O1011      C1032   1.272       .  A
O1012     Ni1035   1.914       .  S
O1012      C1021   1.268       .  A
O1013     Ni1017   1.914       .  S
O1013     Ni1035   1.912   1_565  S
O1013     Ni1029   1.904       .  S
O1013      H1036   0.966       .  S
C1014      C1646   1.485   1_545  S
C1014      O1031   1.270   1_545  A
C1014      O1023   1.279       .  A
O1015     Ni1034   1.945       .  S
O1015      C1021   1.275       .  A
O1016     Ni1034   1.904       .  S
O1016      C1018   1.269   1_545  A
Ni1017     O1020   1.926       .  S
Ni1017     O1022   1.904       .  S
C1018      C1605   1.480       .  S
C1018      O1028   1.274       .  A
O1019     Ni1035   1.909       .  S
O1019      C1025   1.273   1_545  A
O1020      C1025   1.277       .  A
C1021      C1294   1.486       .  S
O1022      C1024   1.268   1_565  A
O1023     Ni1034   1.939       .  S
C1024      C1518   1.486       .  S
C1024      O1030   1.275       .  A
C1025      C1550   1.486       .  S
H1026      O1027   0.966       .  S
O1027     Ni1035   1.909       .  S
O1027     Ni1029   1.914   1_545  S
O1027     Ni1034   1.914       .  S
O1028     Ni1029   1.938       .  S
Ni1029     O1033   1.915       .  S
Ni1029     O1031   1.898       .  S
O1030     Ni1035   1.939       .  S
C1032      C1381   1.486       .  S
C1032      O1033   1.268       .  A
O1037     Ni1043   1.940       .  S
O1037      C1058   1.274   1_545  A
O1038     Ni1061   1.904       .  S
O1038      C1047   1.267       .  A
O1039     Ni1043   1.913       .  S
O1039     Ni1061   1.906   1_655  S
O1039     Ni1055   1.906   1_545  S
O1039      H1062   0.966       .  S
C1040      C1806   1.495       .  S
C1040      O1057   1.271   1_455  A
C1040      O1049   1.278       .  A
O1041     Ni1060   1.945       .  S
O1041      C1047   1.276   1_565  A
O1042     Ni1060   1.911       .  S
O1042      C1044   1.271       .  A
Ni1043     O1046   1.932       .  S
Ni1043     O1048   1.909       .  S
C1044      C1774   1.487   1_455  S
C1044      O1054   1.275   1_455  A
O1045     Ni1061   1.912       .  S
O1045      C1051   1.275       .  A
O1046      C1051   1.277   1_655  A
C1047      C1486   1.487       .  S
O1048      C1050   1.269   1_655  A
O1049     Ni1060   1.935       .  S
C1050      C1669   1.489       .  S
C1050      O1056   1.273       .  A
C1051      C1701   1.487       .  S
H1052      O1053   0.966       .  S
O1053     Ni1061   1.913   1_565  S
O1053     Ni1055   1.910   1_455  S
O1053     Ni1060   1.916       .  S
O1054     Ni1055   1.936       .  S
Ni1055     O1059   1.908       .  S
Ni1055     O1057   1.910       .  S
O1056     Ni1061   1.935       .  S
C1058      C1582   1.479       .  S
C1058      O1059   1.267       .  A
O1063     Ni1069   1.945       .  S
O1063      C1084   1.275       .  A
O1064     Ni1087   1.911       .  S
O1064      C1073   1.268       .  A
O1065     Ni1069   1.917       .  S
O1065     Ni1087   1.913       .  S
O1065     Ni1081   1.913   1_455  S
O1065      H1088   0.966       .  S
C1066      C1134   1.486       .  S
C1066      O1083   1.274       .  A
C1066      O1075   1.278       .  A
O1067     Ni1086   1.948       .  S
O1067      C1073   1.276   1_655  A
O1068     Ni1086   1.904       .  S
O1068      C1070   1.269       .  A
Ni1069     O1072   1.937       .  S
Ni1069     O1074   1.906       .  S
C1070      C1102   1.488       .  S
C1070      O1080   1.276       .  A
O1071     Ni1087   1.899       .  S
O1071      C1077   1.268       .  A
O1072      C1077   1.277       .  A
C1073      C1733   1.489       .  S
O1074      C1076   1.271       .  A
O1075     Ni1086   1.939       .  S
C1076      C1189   1.492       .  S
C1076      O1082   1.279       .  A
C1077      C1230   1.485       .  S
H1078      O1079   0.966       .  S
O1079     Ni1087   1.904   1_655  S
O1079     Ni1081   1.908       .  S
O1079     Ni1086   1.917       .  S
O1080     Ni1081   1.942       .  S
Ni1081     O1085   1.913       .  S
Ni1081     O1083   1.907       .  S
O1082     Ni1087   1.948       .  S
C1084      C1829   1.486   1_455  S
C1084      O1085   1.270   1_455  A
C1089      C1090   1.403       .  A
C1089      C1094   1.408       .  A
C1089      H1099   1.084       .  S
C1090      C1095   1.486       .  S
C1090      C1091   1.411       .  A
C1091      C1092   1.401       .  A
C1091      C1096   1.508       .  S
C1092      C1093   1.404       .  A
C1092      H1097   1.084       .  S
C1093      C1094   1.416       .  A
C1095      C1100   1.408       .  A
C1095      C1104   1.401       .  A
C1096      H1112   1.110       .  S
C1096      H1113   1.110       .  S
C1096      H1114   1.111       .  S
C1098      H1109   1.109   1_554  S
C1098      H1111   1.107   1_554  S
C1100      C1101   1.406       .  A
C1100      C1105   1.506       .  S
C1101      C1102   1.410       .  A
C1101      H1106   1.084       .  S
C1102      C1103   1.422       .  A
C1103      C1104   1.405       .  A
C1103      C1107   1.510       .  S
C1104      H1108   1.085       .  S
C1105      H1115   1.111       .  S
C1105      H1116   1.110       .  S
C1105      H1117   1.111       .  S
C1107      H1118   1.110       .  S
C1107      H1119   1.102       .  S
C1107      H1120   1.111       .  S
C1121      C1122   1.402       .  A
C1121      C1126   1.404       .  A
C1121      H1131   1.084       .  S
C1122      C1127   1.484       .  S
C1122      C1123   1.411       .  A
C1123      C1124   1.403       .  A
C1123      C1128   1.506       .  S
C1124      C1125   1.403       .  A
C1124      H1129   1.082       .  S
C1125      C1126   1.414       .  A
C1127      C1132   1.410       .  A
C1127      C1136   1.402       .  A
C1128      H1144   1.110       .  S
C1128      H1145   1.110       .  S
C1128      H1146   1.111       .  S
C1130      H1141   1.111       .  S
C1130      H1142   1.110       .  S
C1130      H1143   1.107       .  S
C1132      C1133   1.402       .  A
C1132      C1137   1.507       .  S
C1133      C1134   1.404       .  A
C1133      H1138   1.083       .  S
C1134      C1135   1.419       .  A
C1135      C1136   1.408       .  A
C1135      C1139   1.507       .  S
C1136      H1140   1.084       .  S
C1137      H1147   1.111       .  S
C1137      H1148   1.110       .  S
C1137      H1149   1.109       .  S
C1139      H1150   1.111       .  S
C1139      H1151   1.110       .  S
C1139      H1152   1.111       .  S
C1153      C1154   1.401       .  A
C1153      C1158   1.402       .  A
C1153      H1163   1.085       .  S
C1154      C1159   1.481       .  S
C1154      C1155   1.410       .  A
C1155      C1156   1.404       .  A
C1155      C1160   1.505       .  S
C1156      C1157   1.403       .  A
C1156      H1161   1.084       .  S
C1157      C1158   1.414       .  A
C1158      C1162   1.507       .  S
C1159      C1164   1.408       .  A
C1159      C1168   1.402       .  A
C1160      H1176   1.110       .  S
C1160      H1177   1.110       .  S
C1160      H1178   1.111       .  S
C1162      H1173   1.110       .  S
C1162      H1174   1.110       .  S
C1162      H1175   1.108   1_556  S
C1164      C1165   1.403       .  A
C1164      C1169   1.506       .  S
C1165      C1166   1.407       .  A
C1165      H1170   1.084       .  S
C1166      C1167   1.418       .  A
C1167      C1168   1.405       .  A
C1167      C1171   1.507       .  S
C1168      H1172   1.084       .  S
C1169      H1179   1.111       .  S
C1169      H1180   1.110       .  S
C1169      H1181   1.110       .  S
C1171      H1182   1.111       .  S
C1171      H1183   1.110       .  S
C1171      H1184   1.110       .  S
C1185      C1186   1.400       .  A
C1185      C1190   1.407       .  A
C1185      H1195   1.084       .  S
C1186      C1191   1.491       .  S
C1186      C1187   1.413       .  A
C1187      C1188   1.409       .  A
C1187      C1192   1.506       .  S
C1188      C1189   1.407       .  A
C1188      H1193   1.084       .  S
C1189      C1190   1.422       .  A
C1190      C1194   1.508       .  S
C1191      C1196   1.412       .  A
C1191      C1200   1.404       .  A
C1192      H1208   1.110       .  S
C1192      H1209   1.110       .  S
C1192      H1210   1.111       .  S
C1194      H1205   1.110       .  S
C1194      H1206   1.111       .  S
C1194      H1207   1.108       .  S
C1196      C1197   1.405       .  A
C1196      C1201   1.507       .  S
C1197      C1198   1.404       .  A
C1197      H1202   1.084       .  S
C1198      C1199   1.416       .  A
C1199      C1200   1.409       .  A
C1199      C1203   1.506       .  S
C1200      H1204   1.084       .  S
C1201      H1211   1.111       .  S
C1201      H1212   1.110       .  S
C1201      H1213   1.110       .  S
C1203      H1214   1.111   1_556  S
C1203      H1215   1.107   1_556  S
C1203      H1216   1.110       .  S
C1217      C1218   1.402       .  A
C1217      C1222   1.403       .  A
C1217      H1227   1.084       .  S
C1218      C1223   1.479       .  S
C1218      C1219   1.411       .  A
C1219      C1220   1.401       .  A
C1219      C1224   1.507       .  S
C1220      C1221   1.402       .  A
C1221      C1222   1.411       .  A
C1222      C1226   1.504       .  S
C1223      C1228   1.409       .  A
C1223      C1232   1.399       .  A
C1224      H1240   1.110       .  S
C1224      H1241   1.110       .  S
C1224      H1242   1.111       .  S
C1226      H1237   1.110       .  S
C1226      H1238   1.110       .  S
C1226      H1239   1.109       .  S
C1228      C1229   1.405       .  A
C1228      C1233   1.506       .  S
C1229      C1230   1.407       .  A
C1229      H1234   1.084       .  S
C1230      C1231   1.420       .  A
C1231      C1232   1.403       .  A
C1231      C1235   1.510       .  S
C1232      H1236   1.084       .  S
C1233      H1243   1.111       .  S
C1233      H1244   1.110       .  S
C1233      H1245   1.110       .  S
C1235      H1246   1.111       .  S
C1235      H1247   1.110       .  S
C1235      H1248   1.109       .  S
C1249      C1250   1.403       .  A
C1249      C1254   1.407       .  A
C1249      H1259   1.084       .  S
C1250      C1255   1.488       .  S
C1250      C1251   1.414       .  A
C1251      C1252   1.406       .  A
C1251      C1256   1.507       .  S
C1252      C1253   1.403       .  A
C1253      C1254   1.415       .  A
C1254      C1258   1.506       .  S
C1255      C1260   1.412       .  A
C1255      C1264   1.402       .  A
C1256      H1272   1.110       .  S
C1256      H1273   1.108       .  S
C1258      H1269   1.110       .  S
C1258      H1270   1.110       .  S
C1258      H1271   1.109       .  S
C1260      C1261   1.408       .  A
C1260      C1265   1.506       .  S
C1261      C1262   1.405       .  A
C1261      H1266   1.084       .  S
C1262      C1263   1.415       .  A
C1263      C1264   1.406       .  A
C1263      C1267   1.503       .  S
C1264      H1268   1.084       .  S
C1265      H1275   1.111       .  S
C1265      H1276   1.110       .  S
C1265      H1277   1.108       .  S
C1267      H1278   1.109       .  S
C1267      H1279   1.110       .  S
C1267      H1280   1.110       .  S
C1281      C1282   1.401       .  A
C1281      C1286   1.404       .  A
C1281      H1291   1.084       .  S
C1282      C1287   1.491       .  S
C1282      C1283   1.415       .  A
C1283      C1284   1.409       .  A
C1283      C1288   1.506       .  S
C1284      C1285   1.404       .  A
C1284      H1289   1.084       .  S
C1285      C1286   1.417       .  A
C1287      C1292   1.414       .  A
C1287      C1296   1.401       .  A
C1288      H1304   1.110       .  S
C1288      H1305   1.110       .  S
C1288      H1306   1.111       .  S
C1290      H1301   1.110       .  S
C1290      H1302   1.110       .  S
C1290      H1303   1.107       .  S
C1292      C1293   1.411       .  A
C1292      C1297   1.505       .  S
C1293      C1294   1.405       .  A
C1293      H1298   1.084       .  S
C1294      C1295   1.417       .  A
C1295      C1296   1.403       .  A
C1295      C1299   1.505       .  S
C1296      H1300   1.085       .  S
C1297      H1307   1.111       .  S
C1297      H1308   1.110       .  S
C1297      H1309   1.110       .  S
C1299      H1310   1.111       .  S
C1299      H1311   1.104       .  S
C1299      H1312   1.110       .  S
C1313      C1314   1.400       .  A
C1313      C1318   1.408       .  A
C1313      H1323   1.084       .  S
C1314      C1319   1.488       .  S
C1314      C1315   1.412       .  A
C1315      C1316   1.406       .  A
C1315      C1320   1.506       .  S
C1316      C1317   1.406       .  A
C1316      H1321   1.084       .  S
C1317      C1318   1.423       .  A
C1318      C1322   1.509       .  S
C1319      C1324   1.411       .  A
C1319      C1328   1.403       .  A
C1320      H1336   1.110       .  S
C1320      H1337   1.110       .  S
C1320      H1338   1.111       .  S
C1322      H1333   1.109       .  S
C1322      H1334   1.111       .  S
C1322      H1335   1.111       .  S
C1324      C1325   1.404       .  A
C1324      C1329   1.507       .  S
C1325      C1326   1.404       .  A
C1325      H1330   1.084       .  S
C1326      C1327   1.417       .  A
C1327      C1328   1.408       .  A
C1327      C1331   1.505       .  S
C1328      H1332   1.084       .  S
C1329      H1339   1.111       .  S
C1329      H1340   1.110       .  S
C1329      H1341   1.110       .  S
C1331      H1342   1.110   1_556  S
C1331      H1343   1.106       .  S
C1331      H1344   1.110       .  S
C1345      C1346   1.400       .  A
C1345      C1350   1.406       .  A
C1345      H1355   1.084       .  S
C1346      C1351   1.478       .  S
C1346      C1347   1.409       .  A
C1347      C1348   1.401       .  A
C1347      C1352   1.508       .  S
C1348      C1349   1.405       .  A
C1348      H1353   1.083       .  S
C1349      C1350   1.420       .  A
C1350      C1354   1.508       .  S
C1351      C1356   1.409       .  A
C1351      C1360   1.401       .  A
C1352      H1368   1.110       .  S
C1352      H1369   1.109       .  S
C1352      H1370   1.110       .  S
C1354      H1365   1.111       .  S
C1354      H1366   1.111       .  S
C1354      H1367   1.110       .  S
C1356      C1357   1.401       .  A
C1356      C1361   1.506       .  S
C1357      C1358   1.402       .  A
C1358      C1359   1.417       .  A
C1359      C1360   1.404       .  A
C1359      C1363   1.505       .  S
C1360      H1364   1.085       .  S
C1361      H1372   1.110       .  S
C1361      H1373   1.110       .  S
C1363      H1374   1.110       .  S
C1363      H1375   1.104       .  S
C1363      H1376   1.111       .  S
C1377      C1378   1.404       .  A
C1377      C1382   1.411       .  A
C1377      H1387   1.084       .  S
C1378      C1383   1.491       .  S
C1378      C1379   1.414       .  A
C1379      C1380   1.405       .  A
C1379      C1384   1.509       .  S
C1380      C1381   1.404       .  A
C1380      H1385   1.084       .  S
C1381      C1382   1.416       .  A
C1382      C1386   1.506       .  S
C1383      C1388   1.414       .  A
C1383      C1392   1.400       .  A
C1384      H1400   1.110       .  S
C1384      H1401   1.108       .  S
C1384      H1402   1.111       .  S
C1386      H1397   1.110       .  S
C1386      H1398   1.111       .  S
C1386      H1399   1.110       .  S
C1388      C1389   1.410       .  A
C1388      C1393   1.507       .  S
C1389      C1390   1.406       .  A
C1389      H1394   1.083       .  S
C1390      C1391   1.418       .  A
C1391      C1392   1.403       .  A
C1392      H1396   1.085       .  S
C1393      H1403   1.111       .  S
C1393      H1404   1.110       .  S
C1393      H1405   1.108       .  S
C1395      H1406   1.111       .  S
C1395      H1407   1.108       .  S
C1395      H1408   1.110       .  S
C1409      C1410   1.402       .  A
C1409      C1414   1.407       .  A
C1409      H1419   1.084       .  S
C1410      C1415   1.491       .  S
C1410      C1411   1.413       .  A
C1411      C1412   1.408       .  A
C1411      C1416   1.506       .  S
C1412      C1413   1.406       .  A
C1412      H1417   1.084       .  S
C1413      C1414   1.419       .  A
C1414      C1418   1.507       .  S
C1415      C1420   1.413       .  A
C1415      C1424   1.402       .  A
C1416      H1432   1.110       .  S
C1416      H1433   1.110       .  S
C1416      H1434   1.111       .  S
C1418      H1429   1.111       .  S
C1418      H1430   1.110       .  S
C1418      H1431   1.108       .  S
C1420      C1421   1.410       .  A
C1420      C1425   1.505       .  S
C1421      C1422   1.405       .  A
C1421      H1426   1.084       .  S
C1422      C1423   1.416       .  A
C1423      C1424   1.404       .  A
C1423      C1427   1.508       .  S
C1424      H1428   1.085       .  S
C1425      H1435   1.111       .  S
C1425      H1436   1.110       .  S
C1425      H1437   1.110       .  S
C1427      H1440   1.110       .  S
C1441      C1442   1.401       .  A
C1441      C1446   1.403       .  A
C1441      H1451   1.085       .  S
C1442      C1447   1.481       .  S
C1442      C1443   1.409       .  A
C1443      C1444   1.405       .  A
C1443      C1448   1.506       .  S
C1444      C1445   1.406       .  A
C1444      H1449   1.084       .  S
C1445      C1446   1.418       .  A
C1446      C1450   1.508       .  S
C1447      C1452   1.410       .  A
C1447      C1456   1.402       .  A
C1448      H1464   1.110       .  S
C1448      H1465   1.110       .  S
C1448      H1466   1.111       .  S
C1450      H1461   1.111       .  S
C1450      H1462   1.109       .  S
C1450      H1463   1.107       .  S
C1452      C1453   1.403       .  A
C1452      C1457   1.505       .  S
C1453      C1454   1.402       .  A
C1453      H1458   1.084       .  S
C1454      C1455   1.412       .  A
C1455      C1456   1.403       .  A
C1456      H1460   1.084       .  S
C1457      H1467   1.111       .  S
C1457      H1468   1.110       .  S
C1457      H1469   1.110       .  S
C1459      H1470   1.111       .  S
C1459      H1471   1.107       .  S
C1459      H1472   1.110       .  S
C1473      C1474   1.401       .  A
C1473      C1478   1.403       .  A
C1473      H1483   1.085   1_545  S
C1474      C1479   1.487       .  S
C1474      C1475   1.413       .  A
C1475      C1476   1.409       .  A
C1475      C1480   1.506       .  S
C1476      C1477   1.404       .  A
C1476      H1481   1.083       .  S
C1477      C1478   1.416       .  A
C1479      C1484   1.413       .  A
C1479      C1488   1.401       .  A
C1480      H1496   1.110       .  S
C1480      H1497   1.109       .  S
C1480      H1498   1.111       .  S
C1482      H1493   1.110   1_554  S
C1482      H1494   1.110   1_545  S
C1482      H1495   1.107   1_554  S
C1484      C1485   1.406       .  A
C1484      C1489   1.508       .  S
C1485      C1486   1.407       .  A
C1485      H1490   1.084       .  S
C1486      C1487   1.419   1_545  A
C1487      C1488   1.406   1_565  A
C1487      C1491   1.508       .  S
C1488      H1492   1.084   1_545  S
C1489      H1499   1.111       .  S
C1489      H1500   1.110       .  S
C1489      H1501   1.109       .  S
C1491      H1502   1.110       .  S
C1491      H1503   1.106       .  S
C1491      H1504   1.111       .  S
C1505      C1506   1.403       .  A
C1505      C1510   1.408       .  A
C1505      H1515   1.084       .  S
C1506      C1511   1.485       .  S
C1506      C1507   1.411       .  A
C1507      C1508   1.402       .  A
C1507      C1512   1.507       .  S
C1508      C1509   1.404       .  A
C1508      H1513   1.084       .  S
C1509      C1510   1.417       .  A
C1510      C1514   1.505       .  S
C1511      C1516   1.412       .  A
C1511      C1520   1.399       .  A
C1512      H1528   1.110   1_545  S
C1512      H1529   1.110       .  S
C1512      H1530   1.111   1_545  S
C1514      H1525   1.110       .  S
C1514      H1526   1.111   1_556  S
C1514      H1527   1.107   1_556  S
C1516      C1517   1.407       .  A
C1516      C1521   1.506       .  S
C1517      C1518   1.406       .  A
C1517      H1522   1.084       .  S
C1518      C1519   1.420   1_545  A
C1519      C1520   1.404   1_565  A
C1519      C1523   1.509       .  S
C1520      H1524   1.084   1_545  S
C1521      H1531   1.111       .  S
C1521      H1532   1.110       .  S
C1521      H1533   1.110       .  S
C1523      H1534   1.111       .  S
C1523      H1535   1.108       .  S
C1523      H1536   1.110       .  S
C1537      C1538   1.401   1_565  A
C1537      C1542   1.404   1_565  A
C1537      H1547   1.084       .  S
C1538      C1543   1.478       .  S
C1538      C1539   1.411       .  A
C1539      C1540   1.400       .  A
C1539      C1544   1.507       .  S
C1540      C1541   1.401       .  A
C1541      C1542   1.413       .  A
C1542      C1546   1.504   1_545  S
C1543      C1548   1.407   1_545  A
C1543      C1552   1.400       .  A
C1544      H1560   1.110       .  S
C1544      H1561   1.110       .  S
C1544      H1562   1.111       .  S
C1546      H1557   1.110       .  S
C1546      H1558   1.110       .  S
C1546      H1559   1.108       .  S
C1548      C1549   1.403       .  A
C1548      C1553   1.506       .  S
C1549      C1550   1.409       .  A
C1549      H1554   1.084       .  S
C1550      C1551   1.420   1_565  A
C1551      C1552   1.403       .  A
C1551      C1555   1.509       .  S
C1552      H1556   1.084       .  S
C1553      H1563   1.111       .  S
C1553      H1564   1.110       .  S
C1553      H1565   1.110       .  S
C1555      H1566   1.111       .  S
C1555      H1567   1.110       .  S
C1555      H1568   1.109       .  S
C1569      C1570   1.403       .  A
C1569      C1574   1.408       .  A
C1569      H1579   1.085   1_565  S
C1570      C1575   1.487       .  S
C1570      C1571   1.411       .  A
C1571      C1572   1.405       .  A
C1571      C1576   1.507       .  S
C1572      C1573   1.405       .  A
C1572      H1577   1.084       .  S
C1573      C1574   1.418       .  A
C1574      C1578   1.507   1_565  S
C1575      C1580   1.413       .  A
C1575      C1584   1.401       .  A
C1576      H1592   1.110       .  S
C1576      H1593   1.108       .  S
C1576      H1594   1.111       .  S
C1578      H1589   1.110       .  S
C1578      H1590   1.111       .  S
C1578      H1591   1.105       .  S
C1580      C1581   1.410       .  A
C1580      C1585   1.506       .  S
C1581      C1582   1.405       .  A
C1581      H1586   1.084       .  S
C1582      C1583   1.416       .  A
C1583      C1584   1.402       .  A
C1583      C1587   1.509   1_565  S
C1584      H1588   1.085       .  S
C1585      H1595   1.111       .  S
C1585      H1596   1.110       .  S
C1585      H1597   1.108       .  S
C1587      H1598   1.110       .  S
C1587      H1599   1.108       .  S
C1587      H1600   1.110   1_545  S
C1601      C1602   1.400       .  A
C1601      C1606   1.403       .  A
C1601      H1611   1.085       .  S
C1602      C1607   1.485       .  S
C1602      C1603   1.412       .  A
C1603      C1604   1.407       .  A
C1603      C1608   1.506       .  S
C1604      C1605   1.404       .  A
C1604      H1609   1.084       .  S
C1605      C1606   1.416       .  A
C1606      C1610   1.504   1_565  S
C1607      C1612   1.412       .  A
C1607      C1616   1.400       .  A
C1608      H1624   1.110       .  S
C1608      H1625   1.110       .  S
C1608      H1626   1.111       .  S
C1610      H1621   1.110   1_545  S
C1610      H1622   1.110       .  S
C1610      H1623   1.107       .  S
C1612      C1613   1.409       .  A
C1612      C1617   1.505       .  S
C1613      C1614   1.404       .  A
C1613      H1618   1.084       .  S
C1614      C1615   1.415       .  A
C1615      C1616   1.401       .  A
C1615      C1619   1.508   1_565  S
C1616      H1620   1.085   1_565  S
C1617      H1627   1.111       .  S
C1617      H1628   1.110       .  S
C1617      H1629   1.110       .  S
C1619      H1630   1.110       .  S
C1619      H1631   1.108       .  S
C1619      H1632   1.110       .  S
C1633      C1634   1.401       .  A
C1633      C1638   1.403       .  A
C1633      H1643   1.084       .  S
C1634      C1639   1.478       .  S
C1634      C1635   1.409       .  A
C1635      C1636   1.402       .  A
C1635      C1640   1.506   1_565  S
C1636      C1637   1.403       .  A
C1637      C1638   1.414       .  A
C1638      C1642   1.506       .  S
C1639      C1644   1.408   1_565  A
C1639      C1648   1.399       .  A
C1640      H1656   1.110       .  S
C1640      H1657   1.110       .  S
C1642      H1653   1.110       .  S
C1642      H1654   1.111       .  S
C1642      H1655   1.106       .  S
C1644      C1645   1.403       .  A
C1644      C1649   1.506       .  S
C1645      C1646   1.407   1_545  A
C1645      H1650   1.084       .  S
C1646      C1647   1.421       .  A
C1647      C1648   1.403       .  A
C1647      C1651   1.509       .  S
C1648      H1652   1.084       .  S
C1649      H1659   1.111       .  S
C1649      H1660   1.110   1_545  S
C1649      H1661   1.110       .  S
C1651      H1662   1.110       .  S
C1651      H1663   1.110       .  S
C1651      H1664   1.111       .  S
C1665      C1666   1.402       .  A
C1665      C1670   1.407       .  A
C1665      H1675   1.084       .  S
C1666      C1671   1.486       .  S
C1666      C1667   1.411       .  A
C1667      C1668   1.406       .  A
C1667      C1672   1.507   1_455  S
C1668      C1669   1.407       .  A
C1668      H1673   1.084   1_455  S
C1669      C1670   1.419       .  A
C1670      C1674   1.508       .  S
C1671      C1676   1.412       .  A
C1671      C1680   1.400       .  A
C1672      H1688   1.110       .  S
C1672      H1689   1.109   1_655  S
C1672      H1690   1.111       .  S
C1674      H1685   1.109       .  S
C1674      H1686   1.111       .  S
C1674      H1687   1.111       .  S
C1676      C1677   1.409       .  A
C1676      C1681   1.505       .  S
C1677      C1678   1.406       .  A
C1677      H1682   1.084       .  S
C1678      C1679   1.417       .  A
C1679      C1680   1.401       .  A
C1679      C1683   1.508       .  S
C1680      H1684   1.085       .  S
C1681      H1691   1.111       .  S
C1681      H1692   1.110       .  S
C1681      H1693   1.109       .  S
C1683      H1694   1.110       .  S
C1683      H1695   1.107       .  S
C1683      H1696   1.111   1_455  S
C1697      C1698   1.399       .  A
C1697      C1702   1.405   1_455  A
C1697      H1707   1.084   1_455  S
C1698      C1703   1.480       .  S
C1698      C1699   1.410       .  A
C1699      C1700   1.405       .  A
C1699      C1704   1.508       .  S
C1700      C1701   1.407       .  A
C1700      H1705   1.084       .  S
C1701      C1702   1.420   1_455  A
C1702      C1706   1.508       .  S
C1703      C1708   1.410       .  A
C1703      C1712   1.400       .  A
C1704      H1720   1.110       .  S
C1704      H1721   1.110       .  S
C1704      H1722   1.111       .  S
C1706      H1717   1.109       .  S
C1706      H1718   1.111       .  S
C1706      H1719   1.111       .  S
C1708      C1709   1.404       .  A
C1708      C1713   1.505   1_455  S
C1709      C1710   1.404       .  A
C1709      H1714   1.084       .  S
C1710      C1711   1.414       .  A
C1711      C1712   1.401       .  A
C1712      H1716   1.085       .  S
C1713      H1723   1.111       .  S
C1713      H1724   1.110       .  S
C1713      H1725   1.110       .  S
C1715      H1727   1.105       .  S
C1715      H1728   1.111       .  S
C1729      C1730   1.402       .  A
C1729      C1734   1.406       .  A
C1729      H1739   1.085       .  S
C1730      C1735   1.493       .  S
C1730      C1731   1.412       .  A
C1731      C1732   1.411       .  A
C1731      C1736   1.505       .  S
C1732      C1733   1.407       .  A
C1732      H1737   1.084       .  S
C1733      C1734   1.420       .  A
C1734      C1738   1.509   1_455  S
C1735      C1740   1.413       .  A
C1735      C1744   1.402       .  A
C1736      H1752   1.110       .  S
C1736      H1753   1.110       .  S
C1736      H1754   1.111       .  S
C1738      H1749   1.110       .  S
C1738      H1750   1.111   1_655  S
C1738      H1751   1.107       .  S
C1740      C1741   1.409       .  A
C1740      C1745   1.505   1_455  S
C1741      C1742   1.405       .  A
C1741      H1746   1.083       .  S
C1742      C1743   1.419       .  A
C1743      C1744   1.406       .  A
C1743      C1747   1.508       .  S
C1744      H1748   1.084       .  S
C1745      H1755   1.111       .  S
C1745      H1756   1.110       .  S
C1745      H1757   1.110       .  S
C1747      H1760   1.111       .  S
C1761      C1762   1.403       .  A
C1761      C1766   1.410       .  A
C1761      H1771   1.084       .  S
C1762      C1767   1.489       .  S
C1762      C1763   1.411       .  A
C1763      C1764   1.403       .  A
C1763      C1768   1.507   1_655  S
C1764      C1765   1.404       .  A
C1764      H1769   1.084       .  S
C1765      C1766   1.418       .  A
C1767      C1772   1.409   1_655  A
C1767      C1776   1.401       .  A
C1768      H1784   1.110   1_455  S
C1768      H1785   1.110       .  S
C1768      H1786   1.111       .  S
C1770      H1781   1.110       .  S
C1770      H1782   1.105   1_554  S
C1770      H1783   1.111   1_554  S
C1772      C1773   1.407       .  A
C1772      C1777   1.506       .  S
C1773      C1774   1.408   1_455  A
C1773      H1778   1.084       .  S
C1774      C1775   1.422       .  A
C1775      C1776   1.407       .  A
C1775      C1779   1.510       .  S
C1776      H1780   1.085       .  S
C1777      H1787   1.111       .  S
C1777      H1788   1.110       .  S
C1777      H1789   1.110       .  S
C1779      H1790   1.110       .  S
C1779      H1791   1.103       .  S
C1779      H1792   1.111       .  S
C1793      C1794   1.402       .  A
C1793      C1798   1.404       .  A
C1793      H1803   1.085       .  S
C1794      C1799   1.485       .  S
C1794      C1795   1.412   1_655  A
C1795      C1796   1.404   1_455  A
C1795      C1800   1.506       .  S
C1796      C1797   1.403       .  A
C1796      H1801   1.083   1_655  S
C1797      C1798   1.416       .  A
C1799      C1804   1.411   1_655  A
C1799      C1808   1.401       .  A
C1800      H1816   1.110       .  S
C1800      H1817   1.109       .  S
C1800      H1818   1.111       .  S
C1802      H1813   1.111       .  S
C1802      H1814   1.106       .  S
C1802      H1815   1.110       .  S
C1804      C1805   1.404       .  A
C1804      C1809   1.507       .  S
C1805      C1806   1.409       .  A
C1805      H1810   1.084       .  S
C1806      C1807   1.423   1_455  A
C1807      C1808   1.406       .  A
C1807      C1811   1.509       .  S
C1808      H1812   1.085       .  S
C1809      H1819   1.110       .  S
C1809      H1820   1.110       .  S
C1809      H1821   1.108       .  S
C1811      H1822   1.110       .  S
C1811      H1823   1.110       .  S
C1811      H1824   1.111       .  S
C1825      C1826   1.405       .  A
C1825      C1830   1.408       .  A
C1825      H1835   1.085       .  S
C1826      C1831   1.496       .  S
C1826      C1827   1.413       .  A
C1827      C1828   1.410       .  A
C1827      C1832   1.505       .  S
C1828      C1829   1.405       .  A
C1828      H1833   1.084   1_655  S
C1829      C1830   1.417       .  A
C1830      C1834   1.506       .  S
C1831      C1836   1.413       .  A
C1831      C1840   1.405       .  A
C1832      H1848   1.109   1_655  S
C1832      H1849   1.111       .  S
C1832      H1850   1.111   1_655  S
C1834      H1845   1.110       .  S
C1834      H1846   1.110       .  S
C1834      H1847   1.107       .  S
C1836      C1837   1.408       .  A
C1836      C1841   1.506       .  S
C1837      C1838   1.405       .  A
C1837      H1842   1.084       .  S
C1838      C1839   1.416       .  A
C1839      C1840   1.408       .  A
C1840      H1844   1.084   1_655  S
C1841      H1851   1.111       .  S
C1841      H1852   1.109       .  S
C1841      H1853   1.110       .  S
C1843      H1854   1.110       .  S
C1843      H1855   1.107       .  S
C1843      H1856   1.110       .  S
