geometry optimzed in LAMMPS
_audit_creation_date              2020-12-01 
_audit_creation_method            'lammps2cif' 
_symmetry_space_group_name_H-M    'P1' 
_symmetry_Int_Tables_number       1 
_symmetry_cell_setting            triclinic 
loop_ 
_symmetry_equiv_pos_as_xyz 
  x,y,z 
_cell_length_a                    65.36787125 
_cell_length_b                    65.25363601702294 
_cell_length_c                    33.166705305087774 
_cell_angle_alpha                 89.91041781570529 
_cell_angle_beta                  90.06190576089209 
_cell_angle_gamma                 90.71815884203636 
loop_ 
_atom_site_label 
_atom_site_type_symbol 
_atom_site_fract_x 
_atom_site_fract_y 
_atom_site_fract_z 
_atom_site_charge 
C1          C  0.22437622  0.33121132  0.91489180     0.79600
N2          N  0.22859384  0.33935713  0.87737974    -0.78700
C3          C  0.23363226  0.32687371  0.84581042     0.82100
N4          N  0.23429730  0.30637052  0.85211845    -0.78600
C5          C  0.23057414  0.29790871  0.88889706     0.82100
N6          N  0.22548820  0.31042869  0.92020668    -0.80400
C7          C  0.26911116  0.33521704  0.61166046     0.79600
N8          N  0.26353013  0.34313253  0.64866659    -0.78700
C9          C  0.25740921  0.33012833  0.67925940     0.82100
N10         N  0.25749202  0.30968733  0.67255152    -0.78600
C11         C  0.26339942  0.30159556  0.63684356     0.82100
N12         N  0.26900922  0.31446845  0.60639444    -0.80400
C13         C  0.22251038  0.17401096  0.90568822     0.79600
N14         N  0.22481745  0.16800395  0.86629748    -0.78700
C15         C  0.22797650  0.18205759  0.83635667     0.82100
N16         N  0.22898017  0.20219470  0.84603926    -0.78600
C17         C  0.22694602  0.20870740  0.88468802     0.82100
N18         N  0.22359183  0.19455048  0.91448923    -0.80400
C19         C  0.25938576  0.17983813  0.60217222     0.79600
N20         N  0.26362778  0.20040129  0.60113367    -0.78700
C21         C  0.25965981  0.21244118  0.63365416     0.82100
N22         N  0.25127700  0.20374340  0.66688838    -0.78600
C23         C  0.24718382  0.18342798  0.66922025     0.82100
N24         N  0.25126502  0.17126083  0.63664399    -0.80400
Zr25       Zr  0.29824489  0.95771562  0.23596771     2.17500
O26         O  0.30304093  0.93223882  0.28867536    -0.51900
O27         O  0.29899969  0.98973325  0.27624579    -0.75100
O28         O  0.33413750  0.95692959  0.25728826    -0.81900
O29         O  0.24125490  0.94175873  0.22409719    -0.83700
O30         O  0.35426758  0.96615961  0.20348355    -0.79300
O31         O  0.26362056  0.95133846  0.27164277    -0.90900
O32         O  0.32070498  0.00739415  0.23850050    -0.76900
O33         O  0.32201369  0.97894880  0.19775607    -0.86400
O34         O  0.27755746  0.98606884  0.21540759    -0.86100
O35         O  0.31271393  0.94064433  0.17617112    -0.72800
O36         O  0.27383430  0.93886687  0.19564178    -0.85000
Zr37       Zr  0.28586509  0.97548527  0.08300555     2.26400
Zr38       Zr  0.33494244  0.96378333  0.13691103     2.06300
Zr39       Zr  0.25313607  0.96679676  0.17774800     2.10000
Zr40       Zr  0.30245879  0.00600090  0.17704708     1.78800
O41         O  0.22055922  0.95375792  0.15051641    -0.93800
O42         O  0.33794298  0.01887663  0.17176132    -0.41600
O43         O  0.28398605  0.97833413  0.15141798    -0.78200
O44         O  0.31390505  0.99210812  0.11617998    -0.96900
O45         O  0.30850647  0.94805510  0.09548776    -0.90200
O46         O  0.26377863  0.95172375  0.11864011    -0.93100
C47         C  0.30872607  0.00649732  0.26788001     1.00700
C48         C  0.24511838  0.94551338  0.26058357     1.13600
C49         C  0.35158768  0.96214612  0.24186516     1.04400
O50         O  0.37171881  0.96801591  0.12815316    -0.95200
O51         O  0.34271430  0.98457235  0.07172488    -0.90900
O52         O  0.31558561  0.97317980  0.03794208    -0.84100
C53         C  0.33134638  0.98497750  0.03927827     1.11100
O54         O  0.30076403  0.89434472  0.16516695    -0.97200
Zr55       Zr  0.28692126  0.92480470  0.13321670     1.88900
O56         O  0.26246258  0.95223416  0.04518859    -0.73800
O57         O  0.34622525  0.93008619  0.11572789    -0.53100
O58         O  0.30838079  0.90579284  0.08686611    -0.97800
O59         O  0.26147263  0.89890114  0.15187686    -0.55000
O60         O  0.26417599  0.92056744  0.07403746    -0.74300
C61         C  0.25677018  0.93318012  0.04799568     0.98000
O62         O  0.26916062  0.99837924  0.03547401    -0.63200
O63         O  0.22832966  0.98662086  0.21632938    -0.58000
O64         O  0.27355616  0.00766657  0.11051117    -0.94700
O65         O  0.24923750  0.98628768  0.11999827    -0.93100
O66         O  0.28416159  0.03478232  0.20408774    -0.93400
O67         O  0.30259954  0.03379707  0.12801174    -0.92200
C68         C  0.25614503  0.00401557  0.12508614     1.16800
H69         H  0.27062674  0.99372698  0.23602282     0.32800
H70         H  0.31940814  0.00373620  0.10166277     0.43600
H71         H  0.25029865  0.94826591  0.10957544     0.37200
H72         H  0.32131605  0.92985409  0.18618598     0.33600
H73         H  0.33925748  0.03067520  0.19036344     0.25400
H74         H  0.35355798  0.93258430  0.09004207     0.31400
H75         H  0.29866490  0.89776417  0.07004028     0.37300
H76         H  0.29489383  0.04505488  0.21087299     0.31700
H77         H  0.21486130  0.98328250  0.20412198     0.30600
H78         H  0.22138528  0.93861493  0.15207331     0.32300
H79         H  0.26124732  0.88907683  0.12914542     0.31300
H80         H  0.31466398  0.04258618  0.13408010     0.35300
H81         H  0.25663495  0.00391214  0.04748532     0.28000
H82         H  0.31007294  0.93960326  0.31092052     0.32200
H83         H  0.30091629  0.89749484  0.19438293     0.35100
H84         H  0.22728691  0.97995524  0.24271140     0.27700
H85         H  0.27858192  0.01018798  0.03243215     0.40600
H86         H  0.37425003  0.98292639  0.13117800     0.30600
H87         H  0.34716103  0.00830492  0.18281991     0.38200
H88         H  0.24821013  0.90601890  0.15003610     0.30100
H89         H  0.35707113  0.92647066  0.13522987     0.30100
H90         H  0.31329880  0.92272091  0.27769473     0.30400
Zr91       Zr  0.19629629  0.93706566  0.97055489     2.17500
O92         O  0.16673672  0.92956639  0.01301373    -0.51900
O93         O  0.22179586  0.93410011  0.02584668    -0.75100
O94         O  0.19202520  0.90009310  0.97656193    -0.81900
O95         O  0.18060614  0.99291780  0.95824011    -0.83700
O96         O  0.21475721  0.88641100  0.93238177    -0.79300
O97         O  0.18584899  0.97045248  0.00718839    -0.90900
O98         O  0.24400928  0.91650065  0.99076461    -0.76900
O99         O  0.22211004  0.91778261  0.93484235    -0.86400
O100        O  0.22623704  0.95843982  0.96727829    -0.86100
O101        O  0.18598370  0.92455481  0.90284447    -0.72800
O102        O  0.18293398  0.96326943  0.92839391    -0.85000
Zr103      Zr  0.22969234  0.96008060  0.83353499     2.26400
Zr104      Zr  0.21374061  0.90705045  0.86721717     2.06300
Zr105      Zr  0.21230093  0.98566214  0.92807657     2.10000
Zr106      Zr  0.25153733  0.93747950  0.93367097     1.78800
O107        O  0.20798524  0.02291690  0.92732548    -0.93800
O108        O  0.26540124  0.90491465  0.90954560    -0.41600
O109        O  0.23686509  0.96462603  0.90075938    -0.78200
O110        O  0.24214094  0.92981277  0.86647233    -0.96900
O111        O  0.20226630  0.93558208  0.82872752    -0.90200
O112        O  0.20049031  0.97601715  0.86553275    -0.93100
C113        C  0.23965618  0.92626412  0.02214588     1.00700
C114        C  0.18124045  0.98905786  0.99526177     1.13600
C115        C  0.20471765  0.88610279  0.96656640     1.04400
O116        O  0.22482555  0.87252962  0.85117340    -0.95200
O117        O  0.23725476  0.90866649  0.80139024    -0.90900
O118        O  0.23129490  0.93957679  0.77342880    -0.84100
C119        C  0.24052074  0.92244472  0.77250425     1.11100
O120        O  0.14148868  0.93764644  0.88325522    -0.97200
Zr121      Zr  0.17415907  0.95182179  0.86063756     1.88900
O122        O  0.21062886  0.98581240  0.79642731    -0.73800
O123        O  0.18264189  0.89133626  0.84021592    -0.53100
O124        O  0.16324647  0.92889893  0.80668924    -0.97800
O125        O  0.14419236  0.97358583  0.86445784    -0.55000
O126        O  0.17679137  0.97759577  0.80487512    -0.74300
C127        C  0.19147110  0.98928026  0.79128085     0.98000
O128        O  0.26630984  0.95777708  0.82217476    -0.63200
O129        O  0.23155240  0.00602887  0.97652815    -0.58000
O130        O  0.25112288  0.98943963  0.84451187    -0.94700
O131        O  0.22280237  0.00101721  0.86712001    -0.93100
O132        O  0.28184309  0.93935662  0.97674166    -0.93400
O133        O  0.28455581  0.95246262  0.91943909    -0.92200
C134        C  0.24169367  0.00123344  0.86781570     1.16800
H135        H  0.23105032  0.96384015  0.99266677     0.32800
H136        H  0.25388989  0.92394534  0.85382082     0.43600
H137        H  0.19256165  0.98828692  0.86121403     0.37200
H138        H  0.17490695  0.91492116  0.90643742     0.33600
H139        H  0.28009352  0.90781659  0.90464173     0.25400
H140        H  0.18737702  0.88216819  0.81851681     0.31400
H141        H  0.15292299  0.93678757  0.79154225     0.37300
H142        H  0.28644316  0.92501097  0.97977019     0.31700
H143        H  0.22147080  0.01076024  0.99619387     0.30600
H144        H  0.19652638  0.02539732  0.90845559     0.32300
H145        H  0.13970542  0.97555467  0.83618956     0.31300
H146        H  0.28167333  0.96654960  0.91039165     0.35300
H147        H  0.27221390  0.95898072  0.84926664     0.28000
H148        H  0.17166500  0.91970538  0.03346990     0.32200
H149        H  0.14272157  0.93689921  0.91299142     0.35100
H150        H  0.23996842  0.99599394  0.99083071     0.27700
H151        H  0.26979944  0.94370818  0.81425403     0.40600
H152        H  0.23850190  0.87151068  0.86381915     0.30600
H153        H  0.26526753  0.89566882  0.93326186     0.38200
H154        H  0.14962615  0.98714522  0.87282995     0.30100
H155        H  0.17784843  0.88194490  0.86183821     0.30100
H156        H  0.15731846  0.92151402  0.99566910     0.30400
Zr157      Zr  0.19384902  0.05734407  0.73495866     2.17500
O158        O  0.18771891  0.08263689  0.78767476    -0.51900
O159        O  0.19582382  0.02538666  0.77688279    -0.75100
O160        O  0.15853896  0.05355517  0.76002209    -0.81900
O161        O  0.25519427  0.05399251  0.72548861    -0.83700
O162        O  0.13781013  0.04057204  0.71019321    -0.79300
O163        O  0.23070650  0.06558915  0.76681889    -0.90900
O164        O  0.17542599  0.00622582  0.73945348    -0.76900
O165        O  0.17277607  0.03089229  0.70301942    -0.86400
O166        O  0.21863314  0.03374721  0.71341148    -0.86100
O167        O  0.17414768  0.06921665  0.67468185    -0.72800
O168        O  0.20761934  0.07941208  0.68569483    -0.85000
Zr169      Zr  0.20406315  0.03589328  0.58480693     2.26400
Zr170      Zr  0.15497119  0.04109033  0.64231699     2.06300
Zr171      Zr  0.23436103  0.05969368  0.67205872     2.10000
Zr172      Zr  0.19687360  0.00761178  0.68270119     1.78800
O173        O  0.23652193  0.09529177  0.69372536    -0.93800
O174        O  0.16872693  0.98310332  0.67312342    -0.41600
O175        O  0.20437265  0.04041038  0.65395888    -0.78200
O176        O  0.18012592  0.01620012  0.62271986    -0.96900
O177        O  0.17643116  0.05879759  0.59397435    -0.90200
O178        O  0.22100627  0.06603872  0.61036787    -0.93100
C179        C  0.18629100  0.00825010  0.77020549     1.00700
C180        C  0.25030666  0.06213862  0.75805963     1.13600
C181        C  0.14127778  0.04595596  0.74744369     1.04400
O182        O  0.12143647  0.02446109  0.64123806    -0.95200
O183        O  0.14860626  0.01828500  0.57963480    -0.90900
O184        O  0.17310621  0.03248778  0.54238904    -0.84100
C185        C  0.15876806  0.01906894  0.54579477     1.11100
O186        O  0.17271266  0.11737815  0.64284143    -0.97200
Zr187      Zr  0.19329634  0.08808140  0.62301314     1.88900
O188        O  0.22203145  0.05872148  0.53886050    -0.73800
O189        O  0.13378092  0.06931733  0.61988017    -0.53100
O190        O  0.16551202  0.09631688  0.57672984    -0.97800
O191        O  0.21364136  0.11958477  0.62789661    -0.55000
O192        O  0.21445660  0.09116460  0.55942526    -0.74300
C193        C  0.22403811  0.07831671  0.53632279     0.98000
O194        O  0.21795521  0.00477772  0.55500894    -0.63200
O195        O  0.26738231  0.07038156  0.64355229    -0.58000
O196        O  0.22686567  0.01802024  0.63154545    -0.94700
O197        O  0.25206936  0.03988746  0.62771940    -0.93100
O198        O  0.21660747  0.98175586  0.71700949    -0.93400
O199        O  0.21280930  0.98329331  0.63881828    -0.92200
C200        C  0.24492088  0.02341312  0.64113030     1.16800
H201        H  0.22711994  0.02826006  0.73441100     0.32800
H202        H  0.17592560  0.00360146  0.60975757     0.43600
H203        H  0.23404606  0.07109057  0.60095441     0.37200
H204        H  0.16396980  0.07863898  0.68488867     0.33600
H205        H  0.16995241  0.97307614  0.69541195     0.25400
H206        H  0.12785215  0.06453626  0.59400189     0.31400
H207        H  0.17211193  0.10415257  0.55456984     0.37300
H208        H  0.20746392  0.96957598  0.71822984     0.31700
H209        H  0.26502915  0.08395733  0.63115733     0.30600
H210        H  0.25056630  0.09715882  0.70439796     0.32300
H211        H  0.22795144  0.11523670  0.62398548     0.31300
H212        H  0.20108594  0.98021468  0.62098305     0.35300
H213        H  0.22672035  0.99749907  0.57443979     0.28000
H214        H  0.18096833  0.07499187  0.80993263     0.32200
H215        H  0.17493982  0.12797199  0.62178991     0.35100
H216        H  0.27629650  0.07335038  0.66704730     0.27700
H217        H  0.20564171  0.99605176  0.55309179     0.40600
H218        H  0.12378460  0.01063619  0.65252805     0.30600
H219        H  0.15604510  0.99069700  0.67894680     0.38200
H220        H  0.21290429  0.12366108  0.65659480     0.30100
H221        H  0.12208414  0.06927254  0.63884455     0.30100
H222        H  0.17693129  0.09154906  0.77657624     0.30400
Zr223      Zr  0.28879698  0.07555894  0.46830419     2.17500
O224        O  0.31421102  0.08396601  0.51977324    -0.51900
O225        O  0.25872758  0.07731512  0.51453350    -0.75100
O226        O  0.29147227  0.11239140  0.48022194    -0.81900
O227        O  0.31069261  0.02122977  0.45862031    -0.83700
O228        O  0.27221380  0.12702103  0.43053340    -0.79300
O229        O  0.29987555  0.04246689  0.50598673    -0.90900
O230        O  0.23603000  0.09432434  0.47805758    -0.76900
O231        O  0.26378863  0.09530726  0.43107627    -0.86400
O232        O  0.26097782  0.05149501  0.45877621    -0.86100
O233        O  0.30157022  0.08867658  0.40249121    -0.72800
O234        O  0.30752273  0.05144713  0.42828157    -0.85000
Zr235      Zr  0.26325265  0.05474092  0.32343443     2.26400
Zr236      Zr  0.27479916  0.10687165  0.36525404     2.06300
Zr237      Zr  0.28070153  0.02710744  0.42197091     2.10000
Zr238      Zr  0.23713324  0.07271203  0.42093532     1.78800
O239        O  0.29340114  0.99324790  0.40427048    -0.93800
O240        O  0.22040975  0.10476843  0.40295036    -0.41600
O241        O  0.26716326  0.05792834  0.39367578    -0.78200
O242        O  0.24713992  0.08296630  0.35584138    -0.96900
O243        O  0.28965053  0.08008099  0.32544424    -0.90200
O244        O  0.29060577  0.03673413  0.35809886    -0.93100
C245        C  0.24081304  0.08523415  0.51001445     1.00700
C246        C  0.30729614  0.02461708  0.49520475     1.13600
C247        C  0.28037084  0.12700460  0.46656826     1.04400
O248        O  0.26496864  0.14209813  0.35140733    -0.95200
O249        O  0.25225216  0.10773786  0.29990650    -0.90900
O250        O  0.26233973  0.07924099  0.26833919    -0.84100
C251        C  0.25097794  0.09505235  0.26915872     1.11100
O252        O  0.34763974  0.07823243  0.38636030    -0.97200
Zr253      Zr  0.31640548  0.06233762  0.36032437     1.88900
O254        O  0.28314336  0.02910327  0.28800837    -0.73800
O255        O  0.30554188  0.12309139  0.33791926    -0.53100
O256        O  0.33229002  0.08292323  0.30739680    -0.97800
O257        O  0.34422583  0.03862869  0.37287706    -0.55000
O258        O  0.31637639  0.03727425  0.30331508    -0.74300
C259        C  0.30255070  0.02589026  0.28595228     0.98000
O260        O  0.22873857  0.05109370  0.29566580    -0.63200
O261        O  0.26330986  0.00561528  0.47148271    -0.58000
O262        O  0.23813925  0.03573820  0.36045100    -0.94700
O263        O  0.26280228  0.01477724  0.36705812    -0.93100
O264        O  0.20804035  0.05929084  0.45645607    -0.93400
O265        O  0.20906423  0.05768744  0.38359143    -0.92200
C266        C  0.24550286  0.02042193  0.37728663     1.16800
H267        H  0.25521771  0.04526234  0.48270970     0.32800
H268        H  0.23492858  0.08751913  0.34281687     0.43600
H269        H  0.29618143  0.02328446  0.35305881     0.37200
H270        H  0.31224197  0.09853930  0.40834427     0.33600
H271        H  0.20735538  0.10453048  0.41808230     0.25400
H272        H  0.30197382  0.12634943  0.30959532     0.31400
H273        H  0.34522152  0.07581213  0.30123949     0.37300
H274        H  0.19924705  0.07129123  0.46125326     0.31700
H275        H  0.26688324  0.99140682  0.46391357     0.30600
H276        H  0.30823039  0.99519392  0.39918329     0.32300
H277        H  0.35097941  0.03684959  0.34641642     0.31300
H278        H  0.20244001  0.06985331  0.37161541     0.35300
H279        H  0.22249326  0.03736513  0.29980521     0.28000
H280        H  0.30682389  0.09198324  0.54038782     0.32200
H281        H  0.34769202  0.07479493  0.41548149     0.35100
H282        H  0.27135958  0.00787662  0.49558657     0.27700
H283        H  0.22023374  0.06081116  0.31067632     0.40600
H284        H  0.25282707  0.14441367  0.36856021     0.30600
H285        H  0.22859779  0.11592931  0.41543764     0.38200
H286        H  0.33732404  0.02530332  0.37818422     0.30100
H287        H  0.30646438  0.13657100  0.35148570     0.30100
H288        H  0.32377439  0.09385757  0.50692294     0.30400
Zr289      Zr  0.32076176  0.04864020  0.81082191     2.17500
O290        O  0.33123715  0.07954551  0.77475893    -0.51900
O291        O  0.32345832  0.02515607  0.75359631    -0.75100
O292        O  0.35762277  0.04715287  0.80124900    -0.81900
O293        O  0.26581912  0.06866578  0.82204692    -0.83700
O294        O  0.36941968  0.02549070  0.85023844    -0.79300
O295        O  0.28692547  0.05831011  0.77448750    -0.90900
O296        O  0.33742323  0.00062981  0.78981453    -0.76900
O297        O  0.33717141  0.02064886  0.84577419    -0.86400
O298        O  0.29733220  0.02024868  0.81259066    -0.86100
O299        O  0.33339828  0.05751369  0.87872267    -0.72800
O300        O  0.29521500  0.06371132  0.85132170    -0.85000
Zr301      Zr  0.29305822  0.01662914  0.94609189     2.26400
Zr302      Zr  0.34771648  0.02776003  0.91360918     2.06300
Zr303      Zr  0.27071751  0.03601552  0.85005346     2.10000
Zr304      Zr  0.31524597  0.99268355  0.84565382     1.78800
O305        O  0.23398239  0.04317267  0.84670893    -0.93800
O306        O  0.34754255  0.97734109  0.86757764    -0.41600
O307        O  0.28858132  0.00858382  0.87852154    -0.78200
O308        O  0.32204640  0.00133836  0.91380745    -0.96900
O309        O  0.31989516  0.04173755  0.95089552    -0.90200
O310        O  0.28043040  0.04709568  0.91350297    -0.93100
C311        C  0.32921898  0.00654480  0.75738342     1.00700
C312        C  0.26882532  0.06502143  0.78552694     1.13600
C313        C  0.37086941  0.03448075  0.81502254     1.04400
O314        O  0.38099277  0.01386744  0.93122854    -0.95200
O315        O  0.34545574  0.00433821  0.97785354    -0.90900
O316        O  0.31469393  0.01159615  0.00500102    -0.84100
C317        C  0.33161728  0.00190546  0.00641410     1.11100
O318        O  0.32457407  0.10325885  0.90232496    -0.97200
Zr319      Zr  0.30655561  0.07150683  0.91923025     1.88900
O320        O  0.26926727  0.03883445  0.98246987    -0.73800
O321        O  0.36541778  0.05705190  0.94361919    -0.53100
O322        O  0.32788435  0.07991892  0.97721381    -0.97800
O323        O  0.28610153  0.10187323  0.90701866    -0.55000
O324        O  0.28021070  0.07194045  0.97332037    -0.74300
C325        C  0.26740739  0.05835755  0.98720741     0.98000
O326        O  0.29044953  0.98407709  0.98145548    -0.63200
O327        O  0.25201981  0.02401907  0.79002709    -0.58000
O328        O  0.26309988  0.99830483  0.92396873    -0.94700
O329        O  0.25113193  0.02770962  0.90713398    -0.93100
O330        O  0.30303735  0.96718359  0.79749675    -0.93400
O331        O  0.30996561  0.95624595  0.85936186    -0.92200
C332        C  0.25066364  0.00886953  0.90393189     1.16800
H333        H  0.29240515  0.01608232  0.78625581     0.32800
H334        H  0.32604640  0.98887844  0.92720996     0.43600
H335        H  0.26853986  0.05551268  0.91773488     0.37200
H336        H  0.34407339  0.06771758  0.87576178     0.33600
H337        H  0.35117621  0.96769284  0.84577652     0.25400
H338        H  0.37332464  0.05125519  0.96631234     0.31400
H339        H  0.31859848  0.08683355  0.99626167     0.37300
H340        H  0.31542625  0.96076305  0.78609894     0.31700
H341        H  0.24119969  0.01379582  0.79510067     0.30600
H342        H  0.23222282  0.05642506  0.86080447     0.32300
H343        H  0.28379489  0.10789987  0.93397601     0.31300
H344        H  0.31898663  0.95289307  0.88239317     0.35300
H345        H  0.27695780  0.97776755  0.97581539     0.28000
H346        H  0.33831209  0.07454582  0.75041898     0.32200
H347        H  0.32737153  0.10224036  0.87304199     0.35100
H348        H  0.26119959  0.01857893  0.76905123     0.27700
H349        H  0.30060586  0.97521608  0.96831236     0.40600
H350        H  0.38045532  0.99947069  0.92188583     0.30600
H351        H  0.35805055  0.98830306  0.86564225     0.38200
H352        H  0.27251677  0.09643352  0.89875591     0.30100
H353        H  0.37588854  0.06105854  0.92343026     0.30100
H354        H  0.34223943  0.08572043  0.79158667     0.30400
Zr355      Zr  0.20011430  0.05986223  0.04367571     2.17500
O356        O  0.17683677  0.06531568  0.98733641    -0.51900
O357        O  0.23138657  0.05643888  0.00164999    -0.75100
O358        O  0.20129918  0.09549801  0.02124343    -0.81900
O359        O  0.17982859  0.00362101  0.06039011    -0.83700
O360        O  0.21113572  0.11662700  0.07312156    -0.79300
O361        O  0.18863871  0.02553784  0.01121791    -0.90900
O362        O  0.25095855  0.07831056  0.03498177    -0.76900
O363        O  0.22340279  0.08302779  0.07905626    -0.86400
O364        O  0.22703519  0.03748025  0.06486287    -0.86100
O365        O  0.18515582  0.07734011  0.10290199    -0.72800
O366        O  0.17960860  0.03815835  0.08662004    -0.85000
Zr367      Zr  0.21910545  0.04929877  0.19621802     2.26400
Zr368      Zr  0.21042427  0.09823659  0.14019918     2.06300
Zr369      Zr  0.20583823  0.01526241  0.10437829     2.10000
Zr370      Zr  0.24962151  0.06206163  0.09847626     1.78800
O371        O  0.19016917  0.98504715  0.13585443    -0.93800
O372        O  0.26603760  0.09608323  0.09702396    -0.41600
O373        O  0.21814192  0.04825729  0.12520874    -0.78200
O374        O  0.23727736  0.07531840  0.15964785    -0.96900
O375        O  0.19326524  0.07393296  0.18405032    -0.90200
O376        O  0.19294855  0.02883308  0.16328128    -0.93100
C377        C  0.24877685  0.06547879  0.00721802     1.00700
C378        C  0.18216613  0.00738096  0.02342433     1.13600
C379        C  0.20707007  0.11311340  0.03518191     1.04400
O380        O  0.22250094  0.13364786  0.14311135    -0.95200
O381        O  0.23242593  0.10493577  0.20451259    -0.90900
O382        O  0.22148787  0.07859908  0.24202313    -0.84100
C383        C  0.23335671  0.09416960  0.23786074     1.11100
O384        O  0.13916019  0.06910523  0.11208044    -0.97200
Zr385      Zr  0.16773402  0.05397351  0.14848760     1.88900
O386        O  0.19442016  0.02873390  0.23669981    -0.73800
O387        O  0.17995131  0.11549342  0.16408461    -0.53100
O388        O  0.15106826  0.07879097  0.19191478    -0.97800
O389        O  0.13926413  0.03024127  0.13655425    -0.55000
O390        O  0.16256155  0.03347632  0.21030769    -0.74300
C391        C  0.17487756  0.02506103  0.23559874     0.98000
O392        O  0.24312866  0.03193507  0.24025446    -0.63200
O393        O  0.22286195  0.98827888  0.06680355    -0.58000
O394        O  0.24916498  0.03445254  0.16428440    -0.94700
O395        O  0.22679771  0.01065060  0.15951282    -0.93100
O396        O  0.27592633  0.04113887  0.06963093    -0.93400
O397        O  0.27739142  0.06157407  0.14713124    -0.92200
C398        C  0.24446459  0.01686120  0.15177639     1.16800
H399        H  0.23406616  0.02944924  0.04507457     0.32800
H400        H  0.24929392  0.08042732  0.17325718     0.43600
H401        H  0.18830843  0.01588062  0.17393015     0.37200
H402        H  0.17512510  0.08663244  0.09268252     0.33600
H403        H  0.27762388  0.09526712  0.07783444     0.25400
H404        H  0.18343311  0.11978595  0.19192706     0.31400
H405        H  0.14071725  0.07067334  0.20706593     0.37300
H406        H  0.28697046  0.05098345  0.06229697     0.31700
H407        H  0.21882587  0.97546309  0.08079603     0.30600
H408        H  0.17521236  0.98729499  0.13445162     0.32300
H409        H  0.13041226  0.03140448  0.16063417     0.31300
H410        H  0.28747956  0.07203286  0.13808708     0.35300
H411        H  0.24853632  0.01926839  0.22855718     0.28000
H412        H  0.18545715  0.07111985  0.96543432     0.32200
H413        H  0.12752091  0.06910152  0.13113529     0.35100
H414        H  0.21575779  0.98696826  0.04084816     0.27700
H415        H  0.25474718  0.04163198  0.24272124     0.40600
H416        H  0.23715392  0.13300344  0.13570198     0.30600
H417        H  0.25634228  0.10587169  0.08489369     0.38200
H418        H  0.14533013  0.01645484  0.13876272     0.30100
H419        H  0.17958946  0.12844285  0.14851466     0.30100
H420        H  0.16791790  0.07665085  0.99576333     0.30400
Zr421      Zr  0.17498531  0.96346167  0.31175328     2.17500
O422        O  0.16608546  0.93564742  0.26573498    -0.51900
O423        O  0.17392758  0.99025588  0.25853497    -0.75100
O424        O  0.13819032  0.96020310  0.30300981    -0.81900
O425        O  0.23104937  0.94778528  0.32579393    -0.83700
O426        O  0.12363039  0.97903153  0.35344290    -0.79300
O427        O  0.20840276  0.95169417  0.27649193    -0.90900
O428        O  0.15612480  0.01348664  0.29155136    -0.76900
O429        O  0.15511855  0.98780271  0.35006944    -0.86400
O430        O  0.19550240  0.99380436  0.31903314    -0.86100
O431        O  0.16288710  0.95102185  0.37830237    -0.72800
O432        O  0.20128502  0.94958398  0.35213761    -0.85000
Zr433      Zr  0.19841696  0.99296592  0.45304722     2.26400
Zr434      Zr  0.14526978  0.97766583  0.41700693     2.06300
Zr435      Zr  0.22291130  0.97939095  0.35600351     2.10000
Zr436      Zr  0.17370921  0.01784207  0.35429390     1.78800
O437        O  0.25972908  0.97306083  0.35865472    -0.93800
O438        O  0.13690231  0.02385819  0.36190389    -0.41600
O439        O  0.20101197  0.00263281  0.38625126    -0.78200
O440        O  0.16809223  0.00636183  0.42145600    -0.96900
O441        O  0.17411093  0.96528838  0.45367365    -0.90200
O442        O  0.21487468  0.96545220  0.41788003    -0.93100
C443        C  0.16684968  0.00852972  0.26166357     1.00700
C444        C  0.22694722  0.94708900  0.28883689     1.13600
C445        C  0.12340979  0.97065805  0.31760978     1.04400
O446        O  0.11053927  0.98766114  0.43372944    -0.95200
O447        O  0.14519334  0.00000704  0.48321489    -0.90900
O448        O  0.17557513  0.99273199  0.51079794    -0.84100
C449        C  0.15870960  0.00230258  0.51247731     1.11100
O450        O  0.17457554  0.90574397  0.40042920    -0.97200
Zr451      Zr  0.19064438  0.93836557  0.41834645     1.88900
O452        O  0.22426272  0.97146222  0.48651052    -0.73800
O453        O  0.13018504  0.94625012  0.44402114    -0.53100
O454        O  0.17082410  0.92413731  0.47410660    -0.97800
O455        O  0.21495699  0.91178183  0.40100138    -0.55000
O456        O  0.21588445  0.93802207  0.47331098    -0.74300
C457        C  0.22742712  0.95195138  0.48927065     0.98000
O458        O  0.20205340  0.02184127  0.49731174    -0.63200
O459        O  0.24304083  0.99806333  0.30572148    -0.58000
O460        O  0.22243451  0.01917381  0.43147585    -0.94700
O461        O  0.23849361  0.99220252  0.41461714    -0.93100
O462        O  0.18628545  0.04667031  0.31483154    -0.93400
O463        O  0.16917041  0.05114829  0.38642924    -0.92200
C464        C  0.23678910  0.01113520  0.41231271     1.16800
H465        H  0.20150914  0.99982893  0.29483212     0.32800
H466        H  0.16294255  0.01798274  0.43600953     0.43600
H467        H  0.22816096  0.95940900  0.42129529     0.37200
H468        H  0.15333910  0.93991176  0.37367914     0.33600
H469        H  0.13493099  0.02830188  0.39012915     0.25400
H470        H  0.12575798  0.94993580  0.47157361     0.31400
H471        H  0.18051929  0.91526399  0.48877866     0.37300
H472        H  0.17394741  0.05432895  0.30676213     0.31700
H473        H  0.25028893  0.98756892  0.28993761     0.30600
H474        H  0.26142939  0.96207826  0.37900818     0.32300
H475        H  0.21639305  0.90347809  0.42583235     0.31300
H476        H  0.17303970  0.04934877  0.41502627     0.35300
H477        H  0.21601767  0.02769842  0.49639097     0.28000
H478        H  0.15750149  0.94193972  0.24450692     0.32200
H479        H  0.17553508  0.90511500  0.37068129     0.35100
H480        H  0.23336651  0.00443316  0.28701808     0.27700
H481        H  0.19290893  0.03162653  0.48381790     0.40600
H482        H  0.10988489  0.00231789  0.42614960     0.30600
H483        H  0.13409541  0.03626601  0.34563744     0.38200
H484        H  0.22824772  0.91912285  0.39831537     0.30100
H485        H  0.11728110  0.94434988  0.42869331     0.30100
H486        H  0.15665654  0.92656754  0.28103162     0.30400
Zr487      Zr  0.29260256  0.95271699  0.54509360     2.17500
O488        O  0.31974702  0.94559443  0.49699632    -0.51900
O489        O  0.26349708  0.95381618  0.49892063    -0.75100
O490        O  0.28991008  0.91670890  0.52551379    -0.81900
O491        O  0.30879429  0.00987324  0.56029090    -0.83700
O492        O  0.27945701  0.89720549  0.57932798    -0.79300
O493        O  0.30179714  0.98752713  0.51096583    -0.90900
O494        O  0.24528961  0.93356543  0.53821663    -0.76900
O495        O  0.26933690  0.93098014  0.58376794    -0.86400
O496        O  0.26429920  0.97364100  0.56460764    -0.86100
O497        O  0.30804411  0.93620305  0.60434683    -0.72800
O498        O  0.31000672  0.97683256  0.58663869    -0.85000
Zr499      Zr  0.27402529  0.96849879  0.69687835     2.26400
Zr500      Zr  0.28283276  0.91709625  0.64512426     2.06300
Zr501      Zr  0.28215505  0.99870380  0.60377444     2.10000
Zr502      Zr  0.24135332  0.95058838  0.60120779     1.78800
O503        O  0.29305493  0.03453276  0.61119531    -0.93800
O504        O  0.23073213  0.91512684  0.61604181    -0.41600
O505        O  0.25870158  0.97658401  0.63576792    -0.78200
O506        O  0.25656675  0.94103932  0.66235085    -0.96900
O507        O  0.29980382  0.94354005  0.68390857    -0.90200
O508        O  0.30010178  0.98597969  0.65877361    -0.93100
C509        C  0.24639594  0.94531964  0.50816604     1.00700
C510        C  0.30703193  0.00608541  0.52326818     1.13600
C511        C  0.28343333  0.89961407  0.54087848     1.04400
O512        O  0.27708587  0.88047999  0.65521546    -0.95200
O513        O  0.25998642  0.91141489  0.70896053    -0.90900
O514        O  0.26926720  0.93947027  0.74381402    -0.84100
C515        C  0.25823132  0.92308188  0.74098891     1.11100
O516        O  0.35359550  0.94671088  0.60715919    -0.97200
Zr517      Zr  0.32539822  0.96134914  0.64522382     1.88900
O518        O  0.30113249  0.98865856  0.73073402    -0.73800
O519        O  0.31502094  0.90403474  0.67107152    -0.53100
O520        O  0.34445351  0.93750459  0.68715046    -0.97800
O521        O  0.35100848  0.98732722  0.62737609    -0.55000
O522        O  0.33272219  0.98149467  0.70606182    -0.74300
C523        C  0.32075462  0.99101566  0.73015134     0.98000
O524        O  0.25830321  0.97715993  0.76030598    -0.63200
O525        O  0.26082534  0.02167598  0.56356168    -0.58000
O526        O  0.24998862  0.99629440  0.68728204    -0.94700
O527        O  0.27590736  0.01412472  0.66714166    -0.93100
O528        O  0.21071982  0.96088954  0.56511209    -0.93400
O529        O  0.20867882  0.94449917  0.63595742    -0.92200
C530        C  0.25698405  0.01238503  0.67072551     1.16800
H531        H  0.25740072  0.98053428  0.54294224     0.32800
H532        H  0.24462072  0.93678392  0.67721183     0.43600
H533        H  0.30700327  0.99863976  0.66604498     0.37200
H534        H  0.31803055  0.92652882  0.59473771     0.33600
H535        H  0.22420647  0.90997332  0.59097181     0.25400
H536        H  0.31125912  0.89675225  0.69627483     0.31400
H537        H  0.34246501  0.94230647  0.71514981     0.37300
H538        H  0.20313409  0.94800103  0.55910528     0.31700
H539        H  0.27005215  0.03056526  0.54737724     0.30600
H540        H  0.30625827  0.03412285  0.62584654     0.32300
H541        H  0.36121925  0.98705997  0.64946659     0.31300
H542        H  0.21173146  0.94334537  0.66509873     0.35300
H543        H  0.26874686  0.98597811  0.77349814     0.28000
H544        H  0.31252907  0.94101123  0.47228459     0.32200
H545        H  0.36610207  0.94973379  0.62304942     0.35100
H546        H  0.25259548  0.01386355  0.54425357     0.27700
H547        H  0.24672144  0.98619889  0.75549481     0.40600
H548        H  0.26219180  0.87894739  0.65985276     0.30600
H549        H  0.24338282  0.90708727  0.61861544     0.38200
H550        H  0.34395622  0.00056130  0.63072275     0.30100
H551        H  0.31880569  0.89304496  0.65204998     0.30100
H552        H  0.32648304  0.93315301  0.50743988     0.30400
Zr553      Zr  0.28907566  0.57231148  0.54858381     2.17500
O554        O  0.31262781  0.58142372  0.49423707    -0.51900
O555        O  0.25970686  0.56566152  0.50295713    -0.75100
O556        O  0.30013951  0.53664473  0.51716316    -0.81900
O557        O  0.28030310  0.62808725  0.58744229    -0.83700
O558        O  0.30927300  0.51445879  0.56480083    -0.79300
O559        O  0.29065172  0.60903182  0.53285042    -0.90900
O560        O  0.23486590  0.58443883  0.52976811    -0.76900
O561        O  0.26240077  0.55227658  0.56690977    -0.86400
O562        O  0.26408736  0.59274522  0.58544331    -0.86100
O563        O  0.30821469  0.55025499  0.58979437    -0.72800
O564        O  0.30184761  0.58790242  0.61162224    -0.85000
Zr565      Zr  0.26376468  0.55130329  0.69294654     2.26400
Zr566      Zr  0.28038731  0.52614370  0.59754493     2.06300
Zr567      Zr  0.27539030  0.60534017  0.65018462     2.10000
Zr568      Zr  0.23636607  0.57167017  0.59632787     1.78800
O569        O  0.30492078  0.62068585  0.68384962    -0.93800
O570        O  0.20443234  0.55658083  0.57189737    -0.41600
O571        O  0.24866043  0.58077959  0.66064378    -0.78200
O572        O  0.25115866  0.54353553  0.62632260    -0.96900
O573        O  0.29229512  0.53835357  0.65899431    -0.90200
O574        O  0.28987826  0.57788395  0.68905364    -0.93100
C575        C  0.24140501  0.57271518  0.50277490     1.00700
C576        C  0.28563309  0.62621140  0.54935568     1.13600
C577        C  0.30646878  0.51816314  0.52843817     1.04400
O578        O  0.26177223  0.51027952  0.54296238    -0.95200
O579        O  0.27304499  0.50736988  0.65514389    -0.90900
O580        O  0.24465949  0.51957466  0.67623117    -0.84100
C581        C  0.25399883  0.50666949  0.65419529     1.11100
O582        O  0.34520529  0.58588467  0.62836404    -0.97200
Zr583      Zr  0.31817272  0.56345467  0.65427721     1.88900
O584        O  0.28857053  0.52737348  0.72235061    -0.73800
O585        O  0.28632557  0.48903735  0.60566243    -0.53100
O586        O  0.34837225  0.54389158  0.63650331    -0.97800
O587        O  0.33319939  0.58162800  0.71150861    -0.55000
O588        O  0.32100310  0.53478065  0.70149548    -0.74300
C589        C  0.30794318  0.52388898  0.72142342     0.98000
O590        O  0.23976880  0.54180953  0.74552475    -0.63200
O591        O  0.26020405  0.63870386  0.66210487    -0.58000
O592        O  0.25994170  0.57672167  0.74589531    -0.94700
O593        O  0.25105782  0.60553365  0.71352397    -0.93100
O594        O  0.22252300  0.60623407  0.60087645    -0.93400
O595        O  0.21153952  0.56777978  0.65053719    -0.92200
C596        C  0.24958345  0.59322112  0.74505077     1.16800
H597        H  0.25787960  0.60313997  0.56924177     0.32800
H598        H  0.23841663  0.53644150  0.62227906     0.43600
H599        H  0.29394429  0.58256886  0.71547964     0.37200
H600        H  0.32082191  0.54685436  0.57624961     0.33600
H601        H  0.19401149  0.56694554  0.57849027     0.25400
H602        H  0.28431065  0.48251695  0.57904875     0.31400
H603        H  0.35694167  0.54403679  0.66114248     0.37300
H604        H  0.20960301  0.60568999  0.58524025     0.31700
H605        H  0.27098670  0.64881241  0.65490845     0.30600
H606        H  0.29904952  0.62827163  0.70683828     0.32300
H607        H  0.34809501  0.57936914  0.70908365     0.31300
H608        H  0.20578008  0.58155579  0.65495186     0.35300
H609        H  0.22704562  0.53790973  0.73127723     0.28000
H610        H  0.30529444  0.57751196  0.46918611     0.32200
H611        H  0.34335946  0.58569480  0.59871524     0.35100
H612        H  0.24971272  0.64008350  0.64070179     0.27700
H613        H  0.24506098  0.52885188  0.75651422     0.40600
H614        H  0.25058900  0.51973286  0.53630031     0.30600
H615        H  0.20503646  0.55711590  0.54227416     0.38200
H616        H  0.32910879  0.57343317  0.73539549     0.30100
H617        H  0.30093946  0.48702739  0.61243325     0.30100
H618        H  0.32386936  0.57145984  0.49642250     0.30400
Zr619      Zr  0.17830373  0.55216372  0.29634618     2.17500
O620        O  0.17073241  0.57500503  0.23996939    -0.51900
O621        O  0.17985498  0.52243910  0.24922516    -0.75100
O622        O  0.21513109  0.56277662  0.26569274    -0.81900
O623        O  0.12246690  0.54360577  0.33587415    -0.83700
O624        O  0.23815583  0.56843701  0.31402090    -0.79300
O625        O  0.14181067  0.55961096  0.28700911    -0.90900
O626        O  0.15997888  0.49832797  0.27748411    -0.76900
O627        O  0.19588389  0.52411628  0.31344704    -0.86400
O628        O  0.15652666  0.52778213  0.33325001    -0.86100
O629        O  0.20166493  0.56951934  0.33862421    -0.72800
O630        O  0.16370156  0.56451583  0.36061785    -0.85000
Zr631      Zr  0.19691971  0.52343319  0.44130716     2.26400
Zr632      Zr  0.22314497  0.54021361  0.34494392     2.06300
Zr633      Zr  0.14453261  0.53857396  0.39917181     2.10000
Zr634      Zr  0.17506959  0.49878529  0.34265080     1.78800
O635        O  0.13209090  0.56948743  0.43146189    -0.93800
O636        O  0.18708879  0.46764675  0.31112133    -0.41600
O637        O  0.16673185  0.51041156  0.40781353    -0.78200
O638        O  0.20446920  0.51160256  0.37483228    -0.96900
O639        O  0.21203518  0.55149888  0.40750386    -0.90200
O640        O  0.17270992  0.55111908  0.43789599    -0.93100
C641        C  0.17131593  0.50445605  0.24929533     1.00700
C642        C  0.12508818  0.55072419  0.29905887     1.13600
C643        C  0.23413974  0.56779422  0.27746914     1.04400
O644        O  0.22853725  0.51627520  0.29070523    -0.95200
O645        O  0.24110292  0.53462647  0.40351853    -0.90900
O646        O  0.22949467  0.50647777  0.42837080    -0.84100
C647        C  0.24184833  0.51561874  0.40469271     1.11100
O648        O  0.17026111  0.60808914  0.37860888    -0.97200
Zr649      Zr  0.18920861  0.57885802  0.40401957     1.88900
O650        O  0.22124245  0.54564966  0.47735054    -0.73800
O651        O  0.26101972  0.54275793  0.34526130    -0.53100
O652        O  0.21234407  0.60797727  0.39370579    -0.97800
O653        O  0.17082612  0.59396568  0.46043707    -0.55000
O654        O  0.21679092  0.57817491  0.45342336    -0.74300
C655        C  0.22595555  0.56490758  0.47542416     0.98000
O656        O  0.19675702  0.48779639  0.46299705    -0.63200
O657        O  0.10980011  0.52652349  0.41274095    -0.58000
O658        O  0.17353209  0.52320234  0.49764460    -0.94700
O659        O  0.14470756  0.51436239  0.46454365    -0.93100
O660        O  0.13935666  0.49046736  0.35822697    -0.93400
O661        O  0.17684450  0.46638442  0.37876379    -0.92200
C662        C  0.15686815  0.51285398  0.49665311     1.16800
H663        H  0.14590163  0.52213265  0.31652295     0.32800
H664        H  0.21160115  0.49887881  0.37332701     0.43600
H665        H  0.16824624  0.55535963  0.46421104     0.37200
H666        H  0.20642353  0.58205680  0.32617913     0.33600
H667        H  0.17553738  0.46238136  0.29466632     0.25400
H668        H  0.26633997  0.54102456  0.31775636     0.31400
H669        H  0.21301264  0.61501468  0.42015032     0.37300
H670        H  0.13479318  0.48114127  0.33637258     0.31700
H671        H  0.10112048  0.53862200  0.40820509     0.30600
H672        H  0.12664324  0.56469625  0.45770848     0.32300
H673        H  0.17371971  0.60885436  0.45843417     0.31300
H674        H  0.16488426  0.46611776  0.39709814     0.35300
H675        H  0.18263311  0.48301412  0.45732202     0.28000
H676        H  0.17203830  0.56631905  0.21564615     0.32200
H677        H  0.17302434  0.60823764  0.34926977     0.35100
H678        H  0.10643579  0.51710449  0.39021846     0.27700
H679        H  0.20470462  0.48048272  0.44232549     0.40600
H680        H  0.22426855  0.52340437  0.26584592     0.30600
H681        H  0.19735561  0.47249717  0.29147713     0.38200
H682        H  0.17847027  0.58962855  0.48474129     0.30100
H683        H  0.26561732  0.55652555  0.35433509     0.30100
H684        H  0.18255325  0.58461459  0.23850544     0.30400
Zr685      Zr  0.19969965  0.44182469  0.04890297     2.17500
O686        O  0.17308505  0.43159318  0.00094775    -0.51900
O687        O  0.22666578  0.44833439  0.99891702    -0.75100
O688        O  0.18984643  0.47712144  0.01552108    -0.81900
O689        O  0.21109881  0.38618454  0.08635351    -0.83700
O690        O  0.17914899  0.49888085  0.06247541    -0.79300
O691        O  0.20016000  0.40542324  0.03247524    -0.90900
O692        O  0.25137137  0.43095499  0.02888512    -0.76900
O693        O  0.22553594  0.46328391  0.06681783    -0.86400
O694        O  0.22632987  0.42238874  0.08437084    -0.86100
O695        O  0.18007824  0.46311177  0.09100864    -0.72800
O696        O  0.18814115  0.42559123  0.11212185    -0.85000
Zr697      Zr  0.22395709  0.46249408  0.19494347     2.26400
Zr698      Zr  0.20692008  0.48813713  0.09986126     2.06300
Zr699      Zr  0.21585757  0.40912425  0.14918974     2.10000
Zr700      Zr  0.25281043  0.44533799  0.09503152     1.78800
O701        O  0.18736896  0.39109271  0.18122439    -0.93800
O702        O  0.28640212  0.44305827  0.06226147    -0.41600
O703        O  0.24172645  0.43504966  0.16038730    -0.78200
O704        O  0.23650859  0.47144196  0.12920727    -0.96900
O705        O  0.19515495  0.47485229  0.16079022    -0.90200
O706        O  0.19929843  0.43486392  0.18922569    -0.93100
C707        C  0.24505144  0.44180326  0.00029985     1.00700
C708        C  0.20571320  0.38823166  0.04824415     1.13600
C709        C  0.18299172  0.49535030  0.02642538     1.04400
O710        O  0.22527262  0.50703659  0.04897876    -0.95200
O711        O  0.21279393  0.50680372  0.15823216    -0.90900
O712        O  0.24120393  0.49561122  0.18173798    -0.84100
C713        C  0.23181327  0.50812775  0.15877134     1.11100
O714        O  0.14337381  0.42617239  0.13018744    -0.97200
Zr715      Zr  0.17039975  0.44884893  0.15518714     1.88900
O716        O  0.19810294  0.48528595  0.22351993    -0.73800
O717        O  0.19830890  0.52443900  0.11069168    -0.53100
O718        O  0.13918938  0.46666290  0.13682302    -0.97800
O719        O  0.15717833  0.42967992  0.21298379    -0.55000
O720        O  0.16586627  0.47710931  0.20321463    -0.74300
C721        C  0.17870481  0.48831418  0.22309264     0.98000
O722        O  0.24269930  0.47307014  0.25449211    -0.63200
O723        O  0.23241679  0.37667175  0.16304541    -0.58000
O724        O  0.22921207  0.43662654  0.24666921    -0.94700
O725        O  0.24036398  0.40937426  0.21234952    -0.93100
O726        O  0.26632864  0.41646806  0.13308767    -0.93400
O727        O  0.28162769  0.46901752  0.10750041    -0.92200
C728        C  0.24083008  0.42104505  0.24480705     1.16800
H729        H  0.23283296  0.41163423  0.06971322     0.32800
H730        H  0.24881363  0.47889719  0.12835008     0.43600
H731        H  0.19555307  0.42947035  0.21539238     0.37200
H732        H  0.16758686  0.46670191  0.07725215     0.33600
H733        H  0.28785519  0.42864884  0.05342460     0.25400
H734        H  0.20028563  0.53174314  0.08482587     0.31400
H735        H  0.14361634  0.48098870  0.13163704     0.37300
H736        H  0.26955392  0.40602283  0.11248408     0.31700
H737        H  0.22160204  0.36612177  0.15905518     0.30600
H738        H  0.19348328  0.38436686  0.20505924     0.32300
H739        H  0.14211741  0.43065662  0.21076752     0.31300
H740        H  0.29226145  0.46138627  0.12234853     0.35300
H741        H  0.25333515  0.48296791  0.24621149     0.28000
H742        H  0.17609097  0.43964693  0.97626924     0.32200
H743        H  0.14343334  0.42823504  0.10060408     0.35100
H744        H  0.24199062  0.37485303  0.14028264     0.27700
H745        H  0.23263424  0.48165461  0.26829378     0.40600
H746        H  0.23642967  0.49756895  0.04236582     0.30600
H747        H  0.28593135  0.45124562  0.03720273     0.38200
H748        H  0.16068009  0.43824051  0.23668913     0.30100
H749        H  0.18341096  0.52506824  0.11612787     0.30100
H750        H  0.16038110  0.43761089  0.01171818     0.30400
Zr751      Zr  0.30997298  0.46076603  0.79571915     2.17500
O752        O  0.31799433  0.43542804  0.74417676    -0.51900
O753        O  0.30705344  0.48972061  0.74739677    -0.75100
O754        O  0.27391400  0.45052511  0.76311881    -0.81900
O755        O  0.36570240  0.46942198  0.83497685    -0.83700
O756        O  0.25096506  0.44409116  0.81104609    -0.79300
O757        O  0.34635187  0.45595807  0.78310904    -0.90900
O758        O  0.32735311  0.51367683  0.77461583    -0.76900
O759        O  0.29220133  0.48895204  0.81138739    -0.86400
O760        O  0.33157486  0.48540104  0.83229707    -0.86100
O761        O  0.28626441  0.44363803  0.83719895    -0.72800
O762        O  0.32397303  0.44829897  0.86037958    -0.85000
Zr763      Zr  0.28986558  0.49002082  0.93764125     2.26400
Zr764      Zr  0.26458352  0.47292532  0.84195607     2.06300
Zr765      Zr  0.34303356  0.47441896  0.89818502     2.10000
Zr766      Zr  0.31301431  0.51450089  0.84026177     1.78800
O767        O  0.35578963  0.44334775  0.92958866    -0.93800
O768        O  0.30183039  0.54656176  0.81062057    -0.41600
O769        O  0.32061003  0.50264148  0.90563817    -0.78200
O770        O  0.28282644  0.50224001  0.87089285    -0.96900
O771        O  0.27494772  0.46168351  0.90509434    -0.90200
O772        O  0.31422171  0.46229878  0.93581361    -0.93100
C773        C  0.31546747  0.50770508  0.74720588     1.00700
C774        C  0.36338963  0.46313168  0.79736451     1.13600
C775        C  0.25500908  0.44533143  0.77461939     1.04400
O776        O  0.25989754  0.49627874  0.78610291    -0.95200
O777        O  0.24426663  0.47863430  0.89769457    -0.90900
O778        O  0.25771554  0.50680617  0.91916828    -0.84100
C779        C  0.24434475  0.49766378  0.89738253     1.11100
O780        O  0.31790599  0.40509941  0.88135805    -0.97200
Zr781      Zr  0.29785124  0.43432025  0.90297264     1.88900
O782        O  0.26533047  0.46816676  0.97346518    -0.73800
O783        O  0.22672637  0.46964743  0.84045084    -0.53100
O784        O  0.27496173  0.40580484  0.88630776    -0.97800
O785        O  0.31412063  0.41855873  0.96136315    -0.55000
O786        O  0.26985694  0.43531280  0.95167039    -0.74300
C787        C  0.26060733  0.44893770  0.97265813     0.98000
O788        O  0.28872938  0.52362476  0.96912133    -0.63200
O789        O  0.37690643  0.48784594  0.91479403    -0.58000
O790        O  0.31265139  0.48924673  0.99472830    -0.94700
O791        O  0.34267268  0.49722599  0.96496996    -0.93100
O792        O  0.34899488  0.52350824  0.85165914    -0.93400
O793        O  0.31535914  0.54600676  0.87937920    -0.92200
C794        C  0.32981435  0.49871834  0.99583169     1.16800
H795        H  0.34227904  0.49110559  0.81594508     0.32800
H796        H  0.27583952  0.51492998  0.86708633     0.43600
H797        H  0.31848936  0.45789316  0.96216511     0.37200
H798        H  0.28212902  0.43098026  0.82449742     0.33600
H799        H  0.31425828  0.55264280  0.79812838     0.25400
H800        H  0.22157707  0.47336130  0.81360156     0.31400
H801        H  0.27352333  0.39795432  0.91173400     0.37300
H802        H  0.35205878  0.53456492  0.83197373     0.31700
H803        H  0.38646761  0.47717086  0.90562996     0.30600
H804        H  0.35823309  0.44722850  0.95804535     0.32300
H805        H  0.30931030  0.40411939  0.96093205     0.31300
H806        H  0.32440096  0.54302192  0.90256945     0.35300
H807        H  0.29995031  0.53142882  0.95594209     0.28000
H808        H  0.31323949  0.44158711  0.71856165     0.32200
H809        H  0.31750003  0.40564440  0.85151913     0.35100
H810        H  0.37904226  0.49944120  0.89596867     0.27700
H811        H  0.27614168  0.53035613  0.95976554     0.40600
H812        H  0.26351423  0.48850693  0.76171411     0.30600
H813        H  0.29316392  0.54252477  0.78765175     0.38200
H814        H  0.30714631  0.42451132  0.98503556     0.30100
H815        H  0.22199614  0.45541199  0.84582507     0.30100
H816        H  0.30831112  0.42391272  0.74919829     0.30400
Zr817      Zr  0.29402585  0.44297087  0.48192305     2.17500
O818        O  0.31917483  0.43637245  0.53433217    -0.51900
O819        O  0.26460196  0.44465906  0.52947581    -0.75100
O820        O  0.30212556  0.48024908  0.51294253    -0.81900
O821        O  0.28893182  0.38725935  0.44065475    -0.83700
O822        O  0.30567470  0.50387277  0.46442129    -0.79300
O823        O  0.29922234  0.40673806  0.49526871    -0.90900
O824        O  0.24221941  0.42295930  0.50155639    -0.76900
O825        O  0.26356452  0.46017250  0.47204365    -0.86400
O826        O  0.27058463  0.42053881  0.44372100    -0.86100
O827        O  0.30855622  0.46830277  0.44048039    -0.72800
O828        O  0.30710561  0.42997403  0.41682105    -0.85000
Zr829      Zr  0.26393084  0.46099520  0.33723831     2.26400
Zr830      Zr  0.27763897  0.48803563  0.43510294     2.06300
Zr831      Zr  0.28222310  0.40949361  0.37797174     2.10000
Zr832      Zr  0.24039768  0.43735968  0.43555891     1.78800
O833        O  0.31220112  0.39613737  0.34389537    -0.93800
O834        O  0.20689247  0.44190951  0.46627578    -0.41600
O835        O  0.25282200  0.42988182  0.37038762    -0.78200
O836        O  0.25106852  0.46767847  0.40333574    -0.96900
O837        O  0.29020385  0.47823329  0.37230493    -0.90200
O838        O  0.29316909  0.43882283  0.34073440    -0.93100
C839        C  0.24718103  0.43511986  0.52931873     1.00700
C840        C  0.29424565  0.38946986  0.47876748     1.13600
C841        C  0.30590964  0.49952128  0.50097230     1.04400
O842        O  0.25211322  0.48550582  0.48864228    -0.95200
O843        O  0.27204826  0.50485846  0.37482408    -0.90900
O844        O  0.24478491  0.49267031  0.34698354    -0.84100
C845        C  0.25309438  0.50521766  0.37166130     1.11100
O846        O  0.35033921  0.43986451  0.39495801    -0.97200
Zr847      Zr  0.31922115  0.45743496  0.37525761     1.88900
O848        O  0.28441514  0.48658082  0.30053262    -0.73800
O849        O  0.27326585  0.52463860  0.44974332    -0.53100
O850        O  0.34546857  0.48262499  0.39359841    -0.97800
O851        O  0.33661145  0.44361197  0.31639587    -0.55000
O852        O  0.31657303  0.48554459  0.32757891    -0.74300
C853        C  0.30302343  0.49322611  0.30417806     0.98000
O854        O  0.22838808  0.45544007  0.31887607    -0.63200
O855        O  0.26883637  0.37488885  0.36734425    -0.58000
O856        O  0.26616105  0.43936278  0.27904340    -0.94700
O857        O  0.25956204  0.40929533  0.31035101    -0.93100
O858        O  0.23324838  0.40206719  0.41572047    -0.93400
O859        O  0.20794926  0.44407370  0.40323685    -0.92200
C860        C  0.25743935  0.42178811  0.27877419     1.16800
H861        H  0.26532071  0.40929785  0.45929294     0.32800
H862        H  0.23796333  0.47404371  0.40329538     0.43600
H863        H  0.29795241  0.43481035  0.31447281     0.37200
H864        H  0.32104124  0.47338129  0.45290546     0.33600
H865        H  0.20407261  0.42914201  0.48158880     0.25400
H866        H  0.27058309  0.52619380  0.47872995     0.31400
H867        H  0.35410574  0.48403899  0.36922773     0.37300
H868        H  0.22511159  0.39628930  0.43830101     0.31700
H869        H  0.28095807  0.36598433  0.36864797     0.30600
H870        H  0.30782488  0.39451862  0.31545162     0.32300
H871        H  0.35010820  0.45065924  0.31611621     0.31300
H872        H  0.20533952  0.43196925  0.38589733     0.35300
H873        H  0.22542602  0.44069514  0.32316353     0.28000
H874        H  0.31300243  0.44200863  0.55918978     0.32200
H875        H  0.35278401  0.44405545  0.42324919     0.35100
H876        H  0.26093694  0.37152328  0.39201730     0.27700
H877        H  0.22103197  0.46219956  0.34104058     0.40600
H878        H  0.23820461  0.48330386  0.47748202     0.30600
H879        H  0.20871313  0.45258778  0.48694775     0.38200
H880        H  0.32937313  0.44942878  0.29283930     0.30100
H881        H  0.28594396  0.53246697  0.44353263     0.30100
H882        H  0.33067750  0.44584703  0.52811423     0.30400
Zr883      Zr  0.18113386  0.45887914  0.72718659     2.17500
O884        O  0.17375865  0.43472582  0.78174042    -0.51900
O885        O  0.18448840  0.48910226  0.77217222    -0.75100
O886        O  0.21750448  0.44982609  0.75873907    -0.81900
O887        O  0.12484198  0.46459142  0.68961014    -0.83700
O888        O  0.24037549  0.44364166  0.71064723    -0.79300
O889        O  0.14484590  0.45460354  0.74309003    -0.90900
O890        O  0.16483876  0.51286975  0.74319217    -0.76900
O891        O  0.19878400  0.48693102  0.70725070    -0.86400
O892        O  0.15877235  0.48207141  0.68992224    -0.86100
O893        O  0.20424436  0.44118360  0.68599122    -0.72800
O894        O  0.16627431  0.44435593  0.66486199    -0.85000
Zr895      Zr  0.19965612  0.48407496  0.58008857     2.26400
Zr896      Zr  0.22580766  0.47083162  0.67668705     2.06300
Zr897      Zr  0.14692017  0.46925224  0.62552811     2.10000
Zr898      Zr  0.17761835  0.51093949  0.67644575     1.78800
O899        O  0.13445467  0.43756729  0.59493518    -0.93800
O900        O  0.18573698  0.54499875  0.70262768    -0.41600
O901        O  0.16949161  0.49760182  0.61251010    -0.78200
O902        O  0.20683026  0.49857414  0.64514950    -0.96900
O903        O  0.21436653  0.45719190  0.61608903    -0.90200
O904        O  0.17496450  0.45619610  0.58642222    -0.93100
C905        C  0.17626351  0.50697452  0.77138292     1.00700
C906        C  0.12736478  0.45953208  0.72780327     1.13600
C907        C  0.23638910  0.44508762  0.74710747     1.04400
O908        O  0.22999344  0.49521991  0.73090579    -0.95200
O909        O  0.24487481  0.47697641  0.61887369    -0.90900
O910        O  0.23098783  0.50427375  0.59571448    -0.84100
C911        C  0.24437010  0.49600812  0.61853891     1.11100
O912        O  0.17160843  0.40099309  0.65010780    -0.97200
Zr913      Zr  0.19158665  0.42943696  0.62228420     1.88900
O914        O  0.22477845  0.46060187  0.55081430    -0.73800
O915        O  0.26361528  0.46864034  0.67681809    -0.53100
O916        O  0.21302150  0.40053797  0.64037180    -0.97800
O917        O  0.17479653  0.41276074  0.56518250    -0.55000
O918        O  0.22104525  0.42842156  0.57666844    -0.74300
C919        C  0.23032990  0.44178721  0.55446129     0.98000
O920        O  0.20747093  0.50893299  0.52803971    -0.63200
O921        O  0.11176089  0.47785198  0.60922928    -0.58000
O922        O  0.17338442  0.48526143  0.52821628    -0.94700
O923        O  0.14532131  0.49413322  0.56235981    -0.93100
O924        O  0.14191095  0.51672689  0.65820006    -0.93400
O925        O  0.18129834  0.54134441  0.63482477    -0.92200
C926        C  0.15703167  0.49573754  0.52993736     1.16800
H927        H  0.14831305  0.48804579  0.70633486     0.32800
H928        H  0.21298578  0.51189592  0.64728360     0.43600
H929        H  0.17036153  0.45144131  0.56034232     0.37200
H930        H  0.20889630  0.42912077  0.69963004     0.33600
H931        H  0.17246394  0.55059592  0.71159203     0.25400
H932        H  0.26877861  0.47149642  0.70413858     0.31400
H933        H  0.21247263  0.39138093  0.61660302     0.37300
H934        H  0.13893587  0.53062932  0.66838679     0.31700
H935        H  0.10328771  0.46681805  0.62148356     0.30600
H936        H  0.13229145  0.44109486  0.56622133     0.32300
H937        H  0.17761951  0.39799157  0.56876484     0.31300
H938        H  0.16990254  0.54049467  0.61518604     0.35300
H939        H  0.21056175  0.52176795  0.54261968     0.28000
H940        H  0.18122056  0.44031551  0.80540847     0.32200
H941        H  0.17512282  0.40084741  0.67916959     0.35100
H942        H  0.10898458  0.49021635  0.62548536     0.27700
H943        H  0.22069699  0.50470540  0.51689840     0.40600
H944        H  0.22749280  0.48735807  0.75576318     0.30600
H945        H  0.19342417  0.54287837  0.72777051     0.38200
H946        H  0.18312837  0.41681601  0.54150966     0.30100
H947        H  0.26807803  0.45461286  0.66983215     0.30100
H948        H  0.18130329  0.42220867  0.77445298     0.30400
Zr949      Zr  0.30838771  0.55504800  0.22909698     2.17500
O950        O  0.31768678  0.58182103  0.27699091    -0.51900
O951        O  0.30245324  0.52752440  0.27884285    -0.75100
O952        O  0.27191721  0.56399914  0.26107857    -0.81900
O953        O  0.36376709  0.54576202  0.18943669    -0.83700
O954        O  0.24907898  0.57149434  0.21354748    -0.79300
O955        O  0.34513762  0.55581334  0.24490276    -0.90900
O956        O  0.32195288  0.50422814  0.25022431    -0.76900
O957        O  0.28721223  0.52651178  0.21773014    -0.86400
O958        O  0.32810824  0.52865408  0.19328307    -0.86100
O959        O  0.28536006  0.57217433  0.18596763    -0.72800
O960        O  0.32332136  0.56604499  0.16416451    -0.85000
Zr961      Zr  0.28782700  0.52643133  0.08422315     2.26400
Zr962      Zr  0.26196895  0.54365696  0.17919119     2.06300
Zr963      Zr  0.34089414  0.53871627  0.12794071     2.10000
Zr964      Zr  0.30707372  0.50021961  0.18510334     1.78800
O965        O  0.35929613  0.56610766  0.09308083    -0.93800
O966        O  0.28109228  0.47400998  0.19988558    -0.41600
O967        O  0.31649567  0.51133201  0.11926899    -0.78200
O968        O  0.27940001  0.51403656  0.15039154    -0.96900
O969        O  0.27430139  0.55489393  0.11726473    -0.90200
O970        O  0.31384074  0.55304869  0.08811630    -0.93100
C971        C  0.31002024  0.50950369  0.27783376     1.00700
C972        C  0.36214767  0.55084413  0.22766247     1.13600
C973        C  0.25297169  0.56904611  0.24990764     1.04400
O974        O  0.25791746  0.51981530  0.23461395    -0.95200
O975        O  0.24178613  0.53770122  0.12311981    -0.90900
O976        O  0.25484016  0.50976013  0.10061461    -0.84100
C977        C  0.24181667  0.51864440  0.12330093     1.11100
O978        O  0.32052663  0.60916295  0.14541154    -0.97200
Zr979      Zr  0.29852862  0.58144801  0.12095900     1.88900
O980        O  0.26435456  0.54985612  0.05092174    -0.73800
O981        O  0.22438232  0.54657541  0.18096773    -0.53100
O982        O  0.27878134  0.61188546  0.13624194    -0.97800
O983        O  0.31588294  0.59577879  0.06205056    -0.55000
O984        O  0.26942801  0.58237836  0.07410221    -0.74300
C985        C  0.25972634  0.56893114  0.05275433     0.98000
O986        O  0.27958057  0.50057255  0.03400236    -0.63200
O987        O  0.37254830  0.51944902  0.12444792    -0.58000
O988        O  0.31317477  0.52470936  0.03093685    -0.94700
O989        O  0.34207013  0.51575415  0.06258473    -0.93100
O990        O  0.32210148  0.46943084  0.21432160    -0.93400
O991        O  0.32837318  0.48352079  0.13486451    -0.92200
C992        C  0.32978588  0.51462153  0.03102647     1.16800
H993        H  0.33948815  0.52303473  0.20760730     0.32800
H994        H  0.27247047  0.50132603  0.15230474     0.43600
H995        H  0.31883654  0.55723798  0.06199684     0.37200
H996        H  0.28091494  0.58460586  0.19850292     0.33600
H997        H  0.28499526  0.46127331  0.18584487     0.25400
H998        H  0.21960155  0.54181512  0.20761721     0.31400
H999        H  0.28286576  0.62199042  0.11534855     0.37300
H1000       H  0.32109763  0.45862229  0.19346787     0.31700
H1001       H  0.38363463  0.52987474  0.12607793     0.30600
H1002       H  0.36343369  0.55992101  0.06713817     0.32300
H1003       H  0.31554314  0.61080896  0.06587164     0.31300
H1004       H  0.34225515  0.48328180  0.14689158     0.35300
H1005       H  0.27390754  0.48859094  0.04839761     0.28000
H1006       H  0.30543407  0.58337106  0.29422658     0.32200
H1007       H  0.31882843  0.60889994  0.17507596     0.35100
H1008       H  0.37328289  0.51184988  0.15031123     0.27700
H1009       H  0.26771135  0.50621560  0.01957801     0.40600
H1010       H  0.25886099  0.52801972  0.25947011     0.30600
H1011       H  0.28357899  0.47065080  0.22846073     0.38200
H1012       H  0.30635056  0.59317861  0.03934064     0.30100
H1013       H  0.21992767  0.56093367  0.17783950     0.30100
H1014       H  0.31822450  0.59450356  0.26061700     0.30400
Zr1015     Zr  0.19678059  0.56926556  0.97885187     2.17500
O1016       O  0.16987158  0.57591075  0.02806968    -0.51900
O1017       O  0.22574607  0.56702003  0.02677455    -0.75100
O1018       O  0.18866884  0.53272873  0.01082266    -0.81900
O1019       O  0.20497360  0.62592953  0.94386530    -0.83700
O1020       O  0.18117115  0.51005335  0.96257956    -0.79300
O1021       O  0.19220756  0.60553004  0.99473417    -0.90900
O1022       O  0.24947732  0.58703604  0.99787141    -0.76900
O1023       O  0.22460160  0.55114920  0.96107931    -0.86400
O1024       O  0.22076786  0.59160709  0.94245313    -0.86100
O1025       O  0.17940975  0.54570183  0.93697337    -0.72800
O1026       O  0.18343289  0.58417415  0.91582002    -0.85000
Zr1027     Zr  0.22355614  0.55298622  0.83301269     2.26400
Zr1028     Zr  0.20858484  0.52413116  0.92788699     2.06300
Zr1029     Zr  0.20878365  0.60457596  0.87843637     2.10000
Zr1030     Zr  0.24938412  0.57275743  0.93188751     1.78800
O1031       O  0.17767222  0.61804005  0.84847419    -0.93800
O1032       O  0.28354404  0.57083667  0.96191061    -0.41600
O1033       O  0.23704869  0.58275913  0.86780624    -0.78200
O1034       O  0.23589009  0.54441074  0.89843103    -0.96900
O1035       O  0.19633573  0.53609174  0.86649270    -0.90200
O1036       O  0.19566977  0.57669305  0.83914317    -0.93100
C1037       C  0.24358965  0.57563997  0.02618985     1.00700
C1038       C  0.19959134  0.62274736  0.98178330     1.13600
C1039       C  0.18330177  0.51393552  0.99906628     1.04400
O1040       O  0.23098871  0.50728420  0.97463839    -0.95200
O1041       O  0.21420838  0.50869235  0.86616420    -0.90900
O1042       O  0.24173260  0.52043988  0.83923544    -0.84100
C1043       C  0.23320277  0.50792752  0.86354519     1.11100
O1044       O  0.13965097  0.57853079  0.89475774    -0.97200
Zr1045     Zr  0.16879494  0.55852772  0.87260944     1.88900
O1046       O  0.20176997  0.52884701  0.79618822    -0.73800
O1047       O  0.20406607  0.48676252  0.91969622    -0.53100
O1048       O  0.14093941  0.53538640  0.89216217    -0.97800
O1049       O  0.15124958  0.57456059  0.81601963    -0.55000
O1050       O  0.16947956  0.53104002  0.82212658    -0.74300
C1051       C  0.18291809  0.52296360  0.79879259     0.98000
O1052       O  0.25888415  0.55447279  0.81122186    -0.63200
O1053       O  0.22101001  0.63953833  0.86707241    -0.58000
O1054       O  0.22243589  0.57652588  0.77736839    -0.94700
O1055       O  0.23178706  0.60492423  0.81147285    -0.93100
O1056       O  0.25894994  0.60632731  0.90458887    -0.93400
O1057       O  0.27973411  0.55916194  0.90063060    -0.92200
C1058       C  0.23283063  0.59314965  0.77874043     1.16800
H1059       H  0.22699505  0.60217755  0.95836934     0.32800
H1060       H  0.24860220  0.53781654  0.89683389     0.43600
H1061       H  0.19087130  0.58153374  0.81330197     0.37200
H1062       H  0.16716181  0.54101923  0.95032924     0.33600
H1063       H  0.28700954  0.58500217  0.97054889     0.25400
H1064       H  0.20541230  0.48024868  0.94648564     0.31400
H1065       H  0.13135697  0.53562590  0.86903787     0.37300
H1066       H  0.26024344  0.61540605  0.92839703     0.31700
H1067       H  0.20979514  0.64838725  0.87643070     0.30600
H1068       H  0.18255469  0.62733149  0.82682017     0.32300
H1069       H  0.13714133  0.56886044  0.81690451     0.31300
H1070       H  0.28390981  0.57000274  0.88121720     0.35300
H1071       H  0.26336269  0.56866096  0.81741471     0.28000
H1072       H  0.16865198  0.56323435  0.04442748     0.32200
H1073       H  0.13912136  0.57641072  0.92429603     0.35100
H1074       H  0.23208728  0.64161924  0.88713226     0.27700
H1075       H  0.26620515  0.54645960  0.83174404     0.40600
H1076       H  0.24105326  0.51804827  0.98213475     0.30600
H1077       H  0.28227051  0.56297855  0.98719318     0.38200
H1078       H  0.15728928  0.56831083  0.79167404     0.30100
H1079       H  0.18973555  0.48408905  0.91124499     0.30100
H1080       H  0.15710085  0.57620948  0.01204864     0.30400
C1081       C  0.26323423  0.83990827  0.41180346     0.79600
N1082       N  0.26115688  0.81927672  0.41902766    -0.78700
C1083       C  0.25575503  0.80611033  0.38863737     0.82100
N1084       N  0.25264900  0.81380457  0.35113946    -0.78600
C1085       C  0.25442722  0.83406935  0.34310898     0.82100
N1086       N  0.25969556  0.84717513  0.37354488    -0.80400
C1087       C  0.22726927  0.83653502  0.10648654     0.79600
N1088       N  0.23213335  0.84512729  0.14313076    -0.78700
C1089       C  0.23577653  0.83276292  0.17575921     0.82100
N1090       N  0.23405151  0.81216140  0.17158340    -0.78600
C1091       C  0.22911747  0.80351460  0.13570194     0.82100
N1092       N  0.22587396  0.81574259  0.10313567    -0.80400
C1093       C  0.22527821  0.68095584  0.11196181     0.79600
N1094       N  0.23123297  0.67347226  0.14919440    -0.78700
C1095       C  0.23697377  0.68668513  0.17963769     0.82100
N1096       N  0.23632956  0.70712560  0.17274647    -0.78600
C1097       C  0.23039459  0.71479947  0.13672070     0.82100
N1098       N  0.22492945  0.70172239  0.10649510    -0.80400
C1099       C  0.26563812  0.68366607  0.41798088     0.79600
N1100       N  0.26309626  0.70420928  0.42398459    -0.78700
C1101       C  0.25829845  0.71689459  0.39274963     0.82100
N1102       N  0.25595952  0.70881971  0.35527893    -0.78600
C1103       C  0.25831676  0.68855742  0.34796805     0.82100
N1104       N  0.26334339  0.67586165  0.37952681    -0.80400
C1105       C  0.07141229  0.52382098  0.16363287     0.79600
N1106       N  0.07905237  0.51931760  0.12590024    -0.78700
C1107       C  0.06646685  0.51144854  0.09635827     0.82100
N1108       N  0.04643663  0.50820134  0.10482422    -0.78600
C1109       C  0.03854660  0.51244979  0.14161789     0.82100
N1110       N  0.05105067  0.52037644  0.17072285    -0.80400
C1111       C  0.07009682  0.47826643  0.86098857     0.79600
N1112       N  0.07770172  0.48434841  0.89792529    -0.78700
C1113       C  0.06473508  0.48870140  0.92913410     0.82100
N1114       N  0.04430811  0.48651480  0.92325684    -0.78600
C1115       C  0.03639936  0.48049242  0.88715479     0.82100
N1116       N  0.04937334  0.47650516  0.85604057    -0.80400
C1117       C  0.91628548  0.51121729  0.17162099     0.79600
N1118       N  0.93698948  0.51142324  0.17757324    -0.78700
C1119       C  0.94999052  0.50591400  0.14751215     0.82100
N1120       N  0.94211318  0.49992212  0.11148658    -0.78600
C1121       C  0.92168092  0.49964703  0.10452406     0.82100
N1122       N  0.90868782  0.50544004  0.13463306    -0.80400
C1123       C  0.91339433  0.47525508  0.86670777     0.79600
N1124       N  0.90647691  0.47925664  0.90504906    -0.78700
C1125       C  0.91985944  0.48158508  0.93636033     0.82100
N1126       N  0.94006688  0.47982465  0.92927015    -0.78600
C1127       C  0.94749442  0.47563435  0.89214187     0.82100
N1128       N  0.93407966  0.47347786  0.86067436    -0.80400
C1129       C  0.42017923  0.52695625  0.35491236     0.79600
N1130       N  0.41215770  0.52364930  0.39280601    -0.78700
C1131       C  0.42427038  0.51633070  0.42330994     0.82100
N1132       N  0.44428255  0.51278291  0.41571381    -0.78600
C1133       C  0.45267190  0.51614959  0.37882087     0.82100
N1134       N  0.44051533  0.52327242  0.34844804    -0.80400
C1135       C  0.41691031  0.48706548  0.66044212     0.79600
N1136       N  0.43754344  0.48872903  0.66620231    -0.78700
C1137       C  0.45019835  0.49469134  0.63569121     0.82100
N1138       N  0.44207856  0.49891630  0.59904362    -0.78600
C1139       C  0.42171337  0.49764750  0.59205511     0.82100
N1140       N  0.40897003  0.49152383  0.62286890    -0.80400
C1141       C  0.57594540  0.51733520  0.35968494     0.79600
N1142       N  0.55541110  0.51663977  0.35160828    -0.78700
C1143       C  0.54163426  0.51174987  0.38111828     0.82100
N1144       N  0.54861298  0.50746450  0.41881955    -0.78600
C1145       C  0.56886393  0.50794538  0.42775059     0.82100
N1146       N  0.58253184  0.51303054  0.39811025    -0.80400
C1147       C  0.57174022  0.48428983  0.66704758     0.79600
N1148       N  0.57990862  0.48788336  0.62937297    -0.78700
C1149       C  0.56763373  0.49381551  0.59805488     0.82100
N1150       N  0.54736871  0.49596758  0.60461671    -0.78600
C1151       C  0.53889533  0.49227262  0.64122297     0.82100
N1152       N  0.55116015  0.48653773  0.67239195    -0.80400
C1153       C  0.76091252  0.33181986  0.90707743     0.79600
N1154       N  0.75658030  0.33823333  0.86851742    -0.78700
C1155       C  0.75179501  0.32440342  0.83896665     0.82100
N1156       N  0.75143913  0.30417329  0.84796984    -0.78600
C1157       C  0.75572343  0.29731167  0.88561288     0.82100
N1158       N  0.76062910  0.31118929  0.91500094    -0.80400
C1159       C  0.72954957  0.32614854  0.59997730     0.79600
N1160       N  0.73160920  0.30547111  0.59447311    -0.78700
C1161       C  0.73649405  0.29298553  0.62607153     0.82100
N1162       N  0.73939906  0.30140091  0.66304425    -0.78600
C1163       C  0.73753225  0.32174395  0.66942214     0.82100
N1164       N  0.73254506  0.33417567  0.63783639    -0.80400
C1165       C  0.77017028  0.17574448  0.91827678     0.79600
N1166       N  0.76812579  0.19642223  0.92309553    -0.78700
C1167       C  0.76178581  0.20848186  0.89202414     0.82100
N1168       N  0.75713014  0.19965576  0.85607610    -0.78600
C1169       C  0.75913220  0.17923774  0.84979354     0.82100
N1170       N  0.76583904  0.16715266  0.88111821    -0.80400
C1171       C  0.72684913  0.17053836  0.61344131     0.79600
N1172       N  0.72952301  0.19101749  0.60644538    -0.78700
C1173       C  0.73575892  0.20392545  0.63631470     0.82100
N1174       N  0.73915537  0.19613916  0.67369924    -0.78600
C1175       C  0.73681825  0.17589317  0.68201368     0.82100
N1176       N  0.73036693  0.16293482  0.65169625    -0.80400
C1177       C  0.41228457  0.98062009  0.36949590     0.79600
N1178       N  0.43303404  0.98064082  0.36305456    -0.78700
C1179       C  0.44639958  0.98348690  0.39439307     0.82100
N1180       N  0.43869251  0.98648214  0.43186669    -0.78600
C1181       C  0.41838654  0.98655623  0.43947270     0.82100
N1182       N  0.40503793  0.98325462  0.40816749    -0.80400
C1183       C  0.42065911  0.01073670  0.67773367     0.79600
N1184       N  0.41147683  0.00589252  0.64157303    -0.78700
C1185       C  0.42322993  0.00036425  0.60921291     0.82100
N1186       N  0.44381839  0.99970384  0.61364001    -0.78600
C1187       C  0.45310187  0.00444083  0.64905179     0.82100
N1188       N  0.44143765  0.01018459  0.68093592    -0.80400
C1189       C  0.56900397  0.97760993  0.36091766     0.79600
N1190       N  0.54804644  0.97751418  0.35841490    -0.78700
C1191       C  0.53638798  0.98312660  0.39069008     0.82100
N1192       N  0.54594235  0.98951430  0.42479335    -0.78600
C1193       C  0.56653938  0.98964434  0.42871950     0.82100
N1194       N  0.57822187  0.98334500  0.39671801    -0.80400
C1195       C  0.57466804  0.02000436  0.66471189     0.79600
N1196       N  0.58241254  0.01666773  0.62663417    -0.78700
C1197       C  0.56969038  0.00990060  0.59622526     0.82100
N1198       N  0.54947268  0.00714856  0.60413732    -0.78600
C1199       C  0.54160125  0.01080250  0.64126122     0.82100
N1200       N  0.55429115  0.01711021  0.67129017    -0.80400
C1201       C  0.07193916  0.98715854  0.17905757     0.79600
N1202       N  0.08047161  0.99449936  0.14396900    -0.78700
C1203       C  0.06845497  0.99715332  0.11054412     0.82100
N1204       N  0.04821625  0.99252858  0.11270535    -0.78600
C1205       C  0.03967294  0.98515135  0.14710397     0.82100
N1206       N  0.05157489  0.98255364  0.18023338    -0.80400
C1207       C  0.08097490  0.02763184  0.87665904     0.79600
N1208       N  0.06063338  0.02548328  0.86691108    -0.78700
C1209       C  0.04646409  0.02036544  0.89559511     0.82100
N1210       N  0.05271441  0.01789240  0.93429225    -0.78600
C1211       C  0.07264192  0.01987247  0.94492897     0.82100
N1212       N  0.08679492  0.02459829  0.91600350    -0.80400
C1213       C  0.91737528  0.97645777  0.16118944     0.79600
N1214       N  0.93793984  0.97631445  0.16834056    -0.78700
C1215       C  0.95157543  0.98049743  0.13842649     0.82100
N1216       N  0.94459027  0.98498303  0.10097894    -0.78600
C1217       C  0.92432717  0.98569965  0.09259218     0.82100
N1218       N  0.91056174  0.98126055  0.12285790    -0.80400
C1219       C  0.92414452  0.02202433  0.85786834     0.79600
N1220       N  0.94493995  0.02184142  0.85270640    -0.78700
C1221       C  0.95762164  0.01642213  0.88360065     0.82100
N1222       N  0.94927005  0.01091713  0.91955325    -0.78600
C1223       C  0.92878615  0.01097694  0.92602069     0.82100
N1224       N  0.91611321  0.01671815  0.89499533    -0.80400
Zr1225     Zr  0.79127728  0.93732161  0.98233893     2.17500
O1226       O  0.81608959  0.92928857  0.03492764    -0.51900
O1227       O  0.76206889  0.94309921  0.02838648    -0.75100
O1228       O  0.80162679  0.97371911  0.01263086    -0.81900
O1229       O  0.78281122  0.88070986  0.94661317    -0.83700
O1230       O  0.80933595  0.99613351  0.96419519    -0.79300
O1231       O  0.79271192  0.90091458  0.00041657    -0.90900
O1232       O  0.73867861  0.92206136  0.00194093    -0.76900
O1233       O  0.76390596  0.95574832  0.96352668    -0.86400
O1234       O  0.76679485  0.91564355  0.94542340    -0.86100
O1235       O  0.80945602  0.96001564  0.94003677    -0.72800
O1236       O  0.80439019  0.92167486  0.91986840    -0.85000
Zr1237     Zr  0.76442705  0.95418467  0.83679670     2.26400
Zr1238     Zr  0.78092626  0.98248008  0.93129005     2.06300
Zr1239     Zr  0.77856839  0.90212638  0.88204456     2.10000
Zr1240     Zr  0.73809855  0.93481779  0.93524661     1.78800
O1241       O  0.80974092  0.88842551  0.85304925    -0.93800
O1242       O  0.70679428  0.95178019  0.95587583    -0.41600
O1243       O  0.75086703  0.92461316  0.87177186    -0.78200
O1244       O  0.75221905  0.96332796  0.90232060    -0.96900
O1245       O  0.79233135  0.96987061  0.87003800    -0.90200
O1246       O  0.79168871  0.92973001  0.84238745    -0.93100
C1247       C  0.74415158  0.93470315  0.02831490     1.00700
C1248       C  0.78760122  0.88340389  0.98484429     1.13600
C1249       C  0.80703109  0.99253087  0.00073303     1.04400
O1250       O  0.76039826  0.99839287  0.98236962    -0.95200
O1251       O  0.77614631  0.99897274  0.87034772    -0.90900
O1252       O  0.74790267  0.98732190  0.84603113    -0.84100
C1253       C  0.75715445  0.99997673  0.86900729     1.11100
O1254       O  0.84756470  0.92484097  0.89499446    -0.97200
Zr1255     Zr  0.81923807  0.94669831  0.87571425     1.88900
O1256       O  0.78700500  0.97771617  0.79965250    -0.73800
O1257       O  0.78611998  0.02003455  0.92520541    -0.53100
O1258       O  0.84851338  0.96822887  0.89401580    -0.97800
O1259       O  0.83471577  0.93070268  0.81688906    -0.55000
O1260       O  0.81898075  0.97480143  0.82699931    -0.74300
C1261       C  0.80597742  0.98319200  0.80315700     0.98000
O1262       O  0.72909123  0.95420314  0.81438440    -0.63200
O1263       O  0.76595905  0.86727312  0.87125828    -0.58000
O1264       O  0.76457148  0.93013409  0.78151684    -0.94700
O1265       O  0.75584904  0.90123083  0.81495331    -0.93100
O1266       O  0.72389668  0.90032142  0.94546858    -0.93400
O1267       O  0.71105477  0.92857452  0.88556143    -0.92200
C1268       C  0.75461936  0.91318169  0.78249536     1.16800
H1269       H  0.76072723  0.90511034  0.96165374     0.32800
H1270       H  0.73954421  0.97040749  0.90203919     0.43600
H1271       H  0.79612018  0.92483040  0.81645531     0.37200
H1272       H  0.82204662  0.96436285  0.95318729     0.33600
H1273       H  0.69550214  0.94234294  0.94795457     0.25400
H1274       H  0.78361818  0.02638188  0.95179012     0.31400
H1275       H  0.85748349  0.96803511  0.86999324     0.37300
H1276       H  0.70965779  0.90241611  0.95464705     0.31700
H1277       H  0.77716067  0.85830019  0.88036767     0.30600
H1278       H  0.80708196  0.88794667  0.82368665     0.32300
H1279       H  0.84898804  0.93592234  0.81667003     0.31300
H1280       H  0.71269606  0.91435737  0.87575339     0.35300
H1281       H  0.72441932  0.93985646  0.81781733     0.28000
H1282       H  0.80864028  0.93136854  0.06057730     0.32200
H1283       H  0.84815581  0.92580404  0.92475185     0.35100
H1284       H  0.75501309  0.86531284  0.89158605     0.27700
H1285       H  0.72183904  0.96144884  0.83610518     0.40600
H1286       H  0.75038032  0.98779996  0.99085336     0.30600
H1287       H  0.70666755  0.95076225  0.98549436     0.38200
H1288       H  0.82831880  0.93743875  0.79332054     0.30100
H1289       H  0.80059670  0.02313535  0.91854028     0.30100
H1290       H  0.82626330  0.94063372  0.03399227     0.30400
Zr1291     Zr  0.67796240  0.95246608  0.22853058     2.17500
O1292       O  0.66975520  0.92664577  0.27947290    -0.51900
O1293       O  0.68159393  0.98097465  0.27738610    -0.75100
O1294       O  0.71446659  0.94240158  0.25988633    -0.81900
O1295       O  0.62215199  0.96073617  0.18925736    -0.83700
O1296       O  0.73719415  0.93525269  0.21204371    -0.79300
O1297       O  0.64130692  0.95006083  0.24370649    -0.90900
O1298       O  0.66219209  0.00490173  0.24927021    -0.76900
O1299       O  0.69702048  0.98051049  0.21371101    -0.86400
O1300       O  0.65709608  0.97741952  0.19186565    -0.86100
O1301       O  0.70083531  0.93499829  0.18658166    -0.72800
O1302       O  0.66318517  0.94045648  0.16367443    -0.85000
Zr1303     Zr  0.69777221  0.98175943  0.08567322     2.26400
Zr1304     Zr  0.72349138  0.96402848  0.18219248     2.06300
Zr1305     Zr  0.64474929  0.96699662  0.12617374     2.10000
Zr1306     Zr  0.67727139  0.00604438  0.18410474     1.78800
O1307       O  0.62895455  0.93762869  0.09266048    -0.93800
O1308       O  0.67950076  0.04007220  0.21476802    -0.41600
O1309       O  0.66791281  0.99512667  0.11879273    -0.78200
O1310       O  0.70596268  0.99276164  0.15250088    -0.96900
O1311       O  0.71188343  0.95359916  0.11927772    -0.90200
O1312       O  0.67266071  0.95420364  0.08779929    -0.93100
C1313       C  0.67358057  0.99890848  0.27727978     1.00700
C1314       C  0.62412132  0.95524920  0.22740643     1.13600
C1315       C  0.73327852  0.93696125  0.24855063     1.04400
O1316       O  0.72511637  0.98425927  0.24326460    -0.95200
O1317       O  0.74260778  0.97075971  0.12497811    -0.90900
O1318       O  0.73088708  0.99853925  0.09892218    -0.84100
C1319       C  0.74329042  0.98978064  0.12283708     1.11100
O1320       O  0.66858700  0.89574779  0.13709367    -0.97200
Zr1321     Zr  0.68875289  0.92624779  0.12057161     1.88900
O1322       O  0.72280482  0.96091851  0.05065505    -0.73800
O1323       O  0.76133246  0.96330064  0.18329685    -0.53100
O1324       O  0.71083631  0.89789906  0.13901491    -0.97800
O1325       O  0.67418469  0.91115135  0.05950000    -0.55000
O1326       O  0.71808923  0.92836353  0.07469007    -0.74300
C1327       C  0.72775973  0.94191478  0.05348636     0.98000
O1328       O  0.69799686  0.01700958  0.06292753    -0.63200
O1329       O  0.61118159  0.98225953  0.11736993    -0.58000
O1330       O  0.67546187  0.98169250  0.02777317    -0.94700
O1331       O  0.64615959  0.99017478  0.05895202    -0.93100
O1332       O  0.64494756  0.01642265  0.15394923    -0.93400
O1333       O  0.69337244  0.03652793  0.15655759    -0.92200
C1334       C  0.65880778  0.99168280  0.02747383     1.16800
H1335       H  0.64620348  0.98327768  0.20725369     0.32800
H1336       H  0.71358742  0.00530397  0.15458738     0.43600
H1337       H  0.66802802  0.95005557  0.06141345     0.37200
H1338       H  0.70491226  0.92243491  0.19952567     0.33600
H1339       H  0.66563853  0.04285408  0.22533960     0.25400
H1340       H  0.76625646  0.96677063  0.21049817     0.31400
H1341       H  0.72457041  0.90420335  0.14274072     0.37300
H1342       H  0.63717546  0.02259827  0.17638641     0.31700
H1343       H  0.60130333  0.97076211  0.12071104     0.30600
H1344       H  0.62319706  0.94334408  0.06748050     0.32300
H1345       H  0.67993827  0.89718917  0.05843559     0.31300
H1346       H  0.68373839  0.04056386  0.13494936     0.35300
H1347       H  0.68382777  0.02161154  0.06737184     0.28000
H1348       H  0.67623339  0.93183423  0.30456159     0.32200
H1349       H  0.66883808  0.89507498  0.16691077     0.35100
H1350       H  0.60921096  0.99092579  0.14153896     0.27700
H1351       H  0.70564435  0.02419888  0.08444643     0.40600
H1352       H  0.73148753  0.99746533  0.23589716     0.30600
H1353       H  0.68825943  0.03899256  0.23884432     0.38200
H1354       H  0.68101159  0.91847691  0.03696260     0.30100
H1355       H  0.76620640  0.94927915  0.17766731     0.30100
H1356       H  0.67798168  0.91462002  0.27192737     0.30400
Zr1357     Zr  0.81189614  0.04562821  0.72754763     2.17500
O1358       O  0.81997119  0.07232668  0.77663088    -0.51900
O1359       O  0.80627650  0.01697754  0.77552187    -0.75100
O1360       O  0.77609023  0.05609516  0.75983400    -0.81900
O1361       O  0.86773681  0.03736666  0.68980861    -0.83700
O1362       O  0.75335561  0.06205875  0.71135364    -0.79300
O1363       O  0.84848133  0.04767188  0.74419880    -0.90900
O1364       O  0.82567811  0.99236538  0.74953137    -0.76900
O1365       O  0.79339554  0.01753839  0.71098777    -0.86400
O1366       O  0.83303407  0.02080575  0.69184439    -0.86100
O1367       O  0.78889553  0.06266685  0.68499433    -0.72800
O1368       O  0.82690778  0.05784175  0.66324167    -0.85000
Zr1369     Zr  0.79224912  0.01672965  0.58339478     2.26400
Zr1370     Zr  0.76643307  0.03337023  0.67967790     2.06300
Zr1371     Zr  0.84543089  0.03142030  0.62625127     2.10000
Zr1372     Zr  0.81349150  0.99192063  0.68240246     1.78800
O1373       O  0.86177317  0.06055662  0.59289763    -0.93800
O1374       O  0.79730757  0.95993872  0.70345241    -0.41600
O1375       O  0.82200916  0.00361911  0.61726234    -0.78200
O1376       O  0.78454665  0.00469338  0.64950699    -0.96900
O1377       O  0.77774249  0.04480144  0.61689742    -0.90200
O1378       O  0.81762407  0.04413290  0.58702569    -0.93100
C1379       C  0.81370281  0.99878736  0.77612768     1.00700
C1380       C  0.86575567  0.04275985  0.72795625     1.13600
C1381       C  0.75731621  0.06116693  0.74797188     1.04400
O1382       O  0.75930328  0.01013845  0.73481172    -0.95200
O1383       O  0.74744862  0.02814775  0.62182701    -0.90900
O1384       O  0.75891762  0.00018769  0.59678154    -0.84100
C1385       C  0.74669458  0.00910146  0.62069794     1.11100
O1386       O  0.82383708  0.10062372  0.63870853    -0.97200
Zr1387     Zr  0.80158634  0.07200022  0.61968168     1.88900
O1388       O  0.76871243  0.03900649  0.54759553    -0.73800
O1389       O  0.72868697  0.03516761  0.68454460    -0.53100
O1390       O  0.78134208  0.10190983  0.63649237    -0.97800
O1391       O  0.81674987  0.08702515  0.55904224    -0.55000
O1392       O  0.77315714  0.07148374  0.57210030    -0.74300
C1393       C  0.76401293  0.05808960  0.54989029     0.98000
O1394       O  0.79062955  0.98212288  0.55563993    -0.63200
O1395       O  0.87913346  0.01668714  0.61638396    -0.58000
O1396       O  0.81563024  0.01676200  0.52731498    -0.94700
O1397       O  0.84436544  0.00787845  0.56022718    -0.93100
O1398       O  0.84961259  0.98309873  0.67567348    -0.93400
O1399       O  0.81905104  0.95952214  0.64781819    -0.92200
C1400       C  0.83211856  0.00654129  0.52818420     1.16800
H1401       H  0.84335471  0.01509847  0.70880385     0.32800
H1402       H  0.77745470  0.99186510  0.65006197     0.43600
H1403       H  0.82244522  0.04843387  0.56086522     0.37200
H1404       H  0.78480123  0.07530436  0.69747693     0.33600
H1405       H  0.79559964  0.96084021  0.73292272     0.25400
H1406       H  0.72473175  0.03120946  0.71219920     0.31400
H1407       H  0.78133066  0.11028150  0.61154779     0.37300
H1408       H  0.85182870  0.97192744  0.69539733     0.31700
H1409       H  0.88900187  0.02716376  0.62629770     0.30600
H1410       H  0.86477144  0.05556704  0.56537588     0.32300
H1411       H  0.81189412  0.10134316  0.55873328     0.31300
H1412       H  0.82609083  0.96303789  0.62225726     0.35300
H1413       H  0.80055591  0.97438889  0.57204281     0.28000
H1414       H  0.81311538  0.06779529  0.80179826     0.32200
H1415       H  0.82104401  0.10281194  0.66771605     0.35100
H1416       H  0.87989331  0.00539855  0.63628199     0.27700
H1417       H  0.77726598  0.97565940  0.56186457     0.40600
H1418       H  0.76371512  0.01755420  0.75920243     0.30600
H1419       H  0.78339242  0.96040483  0.69190988     0.38200
H1420       H  0.80943284  0.08043991  0.53621946     0.30100
H1421       H  0.72366565  0.04925589  0.68004231     0.30100
H1422       H  0.81207638  0.08435181  0.76762032     0.30400
Zr1423     Zr  0.70044236  0.06197817  0.47911635     2.17500
O1424       O  0.67742396  0.06980933  0.53470163    -0.51900
O1425       O  0.73029898  0.05730147  0.52358882    -0.75100
O1426       O  0.69011089  0.02568538  0.51059611    -0.81900
O1427       O  0.70802427  0.11798411  0.44279499    -0.83700
O1428       O  0.68320792  0.00226645  0.46315460    -0.79300
O1429       O  0.69775898  0.09804623  0.49668237    -0.90900
O1430       O  0.75472087  0.07694864  0.49541282    -0.76900
O1431       O  0.72759963  0.04381831  0.45941140    -0.86400
O1432       O  0.72488278  0.08373870  0.44225106    -0.86100
O1433       O  0.68170101  0.03953210  0.43763535    -0.72800
O1434       O  0.68695426  0.07762959  0.41689830    -0.85000
Zr1435     Zr  0.72496864  0.04347551  0.33209097     2.26400
Zr1436     Zr  0.71016627  0.01739649  0.42860582     2.06300
Zr1437     Zr  0.71292138  0.09656591  0.37843545     2.10000
Zr1438     Zr  0.75287568  0.06412422  0.42884316     1.78800
O1439       O  0.68291186  0.11141789  0.34684540    -0.93800
O1440       O  0.78623029  0.05353302  0.45399383    -0.41600
O1441       O  0.73982746  0.07314494  0.36534566    -0.78200
O1442       O  0.73883606  0.03541094  0.39728893    -0.96900
O1443       O  0.69722403  0.02885193  0.36725671    -0.90200
O1444       O  0.69857485  0.06903844  0.33882867    -0.93100
C1445       C  0.74839861  0.06527495  0.52305257     1.00700
C1446       C  0.70287504  0.11545212  0.48089925     1.13600
C1447       C  0.68475306  0.00670149  0.49957835     1.04400
O1448       O  0.73496996  0.01408403  0.48211926    -0.95200
O1449       O  0.71475309  0.99864928  0.37025258    -0.90900
O1450       O  0.74291518  0.01124542  0.34747157    -0.84100
C1451       C  0.73373505  0.99821671  0.37008007     1.11100
O1452       O  0.64326123  0.07530558  0.39360420    -0.97200
Zr1453     Zr  0.67094357  0.05281097  0.37375103     1.88900
O1454       O  0.70020076  0.02010834  0.29985210    -0.73800
O1455       O  0.70438818  0.98050555  0.44234870    -0.53100
O1456       O  0.64137188  0.03318181  0.39753753    -0.97800
O1457       O  0.65451717  0.06831018  0.31526504    -0.55000
O1458       O  0.66841588  0.02401589  0.32682710    -0.74300
C1459       C  0.68117644  0.01497125  0.30355355     0.98000
O1460       O  0.75146797  0.03542372  0.28385291    -0.63200
O1461       O  0.72720620  0.13090742  0.36877185    -0.58000
O1462       O  0.72715829  0.07006054  0.28071341    -0.94700
O1463       O  0.73736446  0.09794365  0.31496525    -0.93100
O1464       O  0.76258836  0.09969519  0.41477489    -0.93400
O1465       O  0.78065290  0.05924550  0.38152145    -0.92200
C1466       C  0.73831645  0.08622863  0.28255003     1.16800
H1467       H  0.73102600  0.09427519  0.45866967     0.32800
H1468       H  0.75173475  0.02866643  0.39957425     0.43600
H1469       H  0.69404700  0.07401427  0.31298655     0.37200
H1470       H  0.66957961  0.03456574  0.45145361     0.33600
H1471       H  0.79482488  0.06615145  0.45333593     0.25400
H1472       H  0.71649544  0.97478064  0.45586448     0.31400
H1473       H  0.63214611  0.03227404  0.37391181     0.37300
H1474       H  0.77721013  0.10078139  0.42241040     0.31700
H1475       H  0.71572610  0.14025160  0.37406666     0.30600
H1476       H  0.68686811  0.11332837  0.31828685     0.32300
H1477       H  0.64067391  0.06194476  0.31449912     0.31300
H1478       H  0.78258831  0.07259003  0.36775008     0.35300
H1479       H  0.76368791  0.03268958  0.30041774     0.28000
H1480       H  0.68293354  0.06215383  0.55807751     0.32200
H1481       H  0.64227403  0.07371422  0.42323587     0.35100
H1482       H  0.73668783  0.13302377  0.39178611     0.27700
H1483       H  0.74752548  0.02199197  0.27257147     0.40600
H1484       H  0.72683427  0.01444882  0.50699949     0.30600
H1485       H  0.78468292  0.05062363  0.48293344     0.38200
H1486       H  0.66152631  0.06243718  0.29161790     0.30100
H1487       H  0.70272223  0.97277577  0.41688142     0.30100
H1488       H  0.66447847  0.06259334  0.52792803     0.30400
Zr1489     Zr  0.80715102  0.95204349  0.29756454     2.17500
O1490       O  0.81567626  0.92716666  0.24547907    -0.51900
O1491       O  0.80267668  0.98158721  0.25138356    -0.75100
O1492       O  0.77095600  0.94215921  0.26484642    -0.81900
O1493       O  0.86367656  0.96062205  0.33398752    -0.83700
O1494       O  0.74810203  0.93505513  0.31278081    -0.79300
O1495       O  0.84345988  0.94935009  0.28150674    -0.90900
O1496       O  0.82204116  0.00633903  0.27934299    -0.76900
O1497       O  0.78929536  0.97959357  0.31687472    -0.86400
O1498       O  0.82914789  0.97637442  0.33425399    -0.86100
O1499       O  0.78425449  0.93369424  0.33912240    -0.72800
O1500       O  0.82233801  0.93856147  0.36029815    -0.85000
Zr1501     Zr  0.78892439  0.97769359  0.44368993     2.26400
Zr1502     Zr  0.76240796  0.96260517  0.34744567     2.06300
Zr1503     Zr  0.84179376  0.96435616  0.39834195     2.10000
Zr1504     Zr  0.81011430  0.00475904  0.34678376     1.78800
O1505       O  0.85563622  0.93358608  0.42912800    -0.93800
O1506       O  0.79952993  0.03819038  0.32194984    -0.41600
O1507       O  0.81897777  0.99186429  0.41065958    -0.78200
O1508       O  0.78122429  0.99105993  0.37793751    -0.96900
O1509       O  0.77360547  0.94993328  0.40946507    -0.90200
O1510       O  0.81384912  0.95074851  0.43770440    -0.93100
C1511       C  0.81037025  0.99987670  0.25177462     1.00700
C1512       C  0.86090150  0.95535534  0.29596511     1.13600
C1513       C  0.75202327  0.93692123  0.27627096     1.04400
O1514       O  0.75679341  0.98662025  0.29334420    -0.95200
O1515       O  0.74336463  0.96853512  0.40479092    -0.90900
O1516       O  0.75711111  0.99630049  0.42774759    -0.84100
C1517       C  0.74375217  0.98761908  0.40509714     1.11100
O1518       O  0.81964484  0.89514224  0.38539146    -0.97200
Zr1519     Zr  0.79717994  0.92317354  0.40354626     1.88900
O1520       O  0.76568875  0.95362487  0.47728477    -0.73800
O1521       O  0.72460859  0.96066292  0.34377287    -0.53100
O1522       O  0.77557598  0.89455188  0.38155013    -0.97800
O1523       O  0.81279481  0.90701007  0.46224415    -0.55000
O1524       O  0.76948340  0.92133173  0.45263246    -0.74300
C1525       C  0.76067426  0.93452931  0.47519460     0.98000
O1526       O  0.78075649  0.00381204  0.49277026    -0.63200
O1527       O  0.87620477  0.97696536  0.41296597    -0.58000
O1528       O  0.81510438  0.97923637  0.49587668    -0.94700
O1529       O  0.84345993  0.98853755  0.46225099    -0.93100
O1530       O  0.84588898  0.01502777  0.35664262    -0.93400
O1531       O  0.80725925  0.03069572  0.39890112    -0.92200
C1532       C  0.83167541  0.98977723  0.49451024     1.16800
H1533       H  0.83937283  0.98271991  0.31757727     0.32800
H1534       H  0.77480720  0.00402549  0.37531401     0.43600
H1535       H  0.81867625  0.94619494  0.46374507     0.37200
H1536       H  0.77960055  0.92152962  0.32546442     0.33600
H1537       H  0.81128723  0.04745227  0.32783082     0.25400
H1538       H  0.72050541  0.96487320  0.31637119     0.31400
H1539       H  0.77114454  0.88762331  0.40669502     0.37300
H1540       H  0.84813840  0.02660426  0.33774769     0.31700
H1541       H  0.88536233  0.96611058  0.40316151     0.30600
H1542       H  0.86116872  0.93830318  0.45536673     0.32300
H1543       H  0.80736034  0.89276977  0.46212548     0.31300
H1544       H  0.82145260  0.03429205  0.40691933     0.35300
H1545       H  0.77761527  0.01614903  0.47679135     0.28000
H1546       H  0.81132961  0.93362013  0.21987860     0.32200
H1547       H  0.81552227  0.89131931  0.35766670     0.35100
H1548       H  0.87831802  0.98859587  0.39412607     0.27700
H1549       H  0.76754037  0.99937036  0.50449533     0.40600
H1550       H  0.75923188  0.97878197  0.26856893     0.30600
H1551       H  0.79936440  0.03746499  0.29228968     0.38200
H1552       H  0.80618492  0.91335599  0.48588630     0.30100
H1553       H  0.71935456  0.94649670  0.34791153     0.30100
H1554       H  0.80584317  0.91568120  0.24954662     0.30400
Zr1555     Zr  0.79296180  0.06713127  0.04766708     2.17500
O1556       O  0.81812720  0.07488860  0.99568963    -0.51900
O1557       O  0.76352106  0.06433723  0.00027608    -0.75100
O1558       O  0.80191434  0.03039759  0.01594766    -0.81900
O1559       O  0.78682627  0.12244172  0.09001863    -0.83700
O1560       O  0.80582597  0.00702118  0.06453436    -0.79300
O1561       O  0.79764446  0.10379556  0.03515154    -0.90900
O1562       O  0.74003786  0.08450198  0.02784499    -0.76900
O1563       O  0.76285010  0.04864981  0.05741923    -0.86400
O1564       O  0.76893996  0.08835888  0.08540165    -0.86100
O1565       O  0.80771466  0.04217999  0.08891247    -0.72800
O1566       O  0.80564342  0.07995577  0.11327995    -0.85000
Zr1567     Zr  0.76292463  0.04603372  0.19235161     2.26400
Zr1568     Zr  0.77717362  0.02108124  0.09375360     2.06300
Zr1569     Zr  0.78029146  0.09909624  0.15174135     2.10000
Zr1570     Zr  0.73908629  0.07012496  0.09399192     1.78800
O1571       O  0.81075526  0.11255207  0.18531933    -0.93800
O1572       O  0.70702075  0.06042020  0.06146975    -0.41600
O1573       O  0.75137600  0.07686032  0.15960052    -0.78200
O1574       O  0.74955283  0.03956461  0.12611935    -0.96900
O1575       O  0.78963723  0.03052071  0.15709607    -0.90200
O1576       O  0.79158028  0.06989972  0.18917622    -0.93100
C1577       C  0.74582351  0.07289487  0.99988829     1.00700
C1578       C  0.79253333  0.12082983  0.05201596     1.13600
C1579       C  0.80607566  0.01130690  0.02796958     1.04400
O1580       O  0.75123864  0.02020769  0.04111832    -0.95200
O1581       O  0.77347663  0.00197430  0.15184206    -0.90900
O1582       O  0.74593798  0.01314958  0.17905948    -0.84100
C1583       C  0.75456562  0.00085164  0.15502806     1.11100
O1584       O  0.84738372  0.07342106  0.13245818    -0.97200
Zr1585     Zr  0.81815206  0.05282330  0.15459615     1.88900
O1586       O  0.78462712  0.02126941  0.22728208    -0.73800
O1587       O  0.77395379  0.98464515  0.07589689    -0.53100
O1588       O  0.84532332  0.02922203  0.13687583    -0.97800
O1589       O  0.83534302  0.06723800  0.21357689    -0.55000
O1590       O  0.81693644  0.02409225  0.20150441    -0.74300
C1591       C  0.80339697  0.01555257  0.22424522     0.98000
O1592       O  0.72874370  0.04473218  0.22192441    -0.63200
O1593       O  0.76697576  0.13320032  0.16445126    -0.58000
O1594       O  0.76452390  0.06929638  0.24888726    -0.94700
O1595       O  0.75700624  0.09889707  0.21769333    -0.93100
O1596       O  0.73325433  0.10581531  0.11184113    -0.93400
O1597       O  0.70605876  0.07183234  0.12701125    -0.92200
C1598       C  0.75507683  0.08627077  0.24897224     1.16800
H1599       H  0.76372491  0.09941244  0.06940278     0.32800
H1600       H  0.73669180  0.03240122  0.12590712     0.43600
H1601       H  0.79643853  0.07400286  0.21539984     0.37200
H1602       H  0.82036621  0.03792559  0.07666597     0.33600
H1603       H  0.70216904  0.07300555  0.04791349     0.25400
H1604       H  0.77151863  0.98353920  0.04672179     0.31400
H1605       H  0.85743144  0.03407135  0.15226283     0.37300
H1606       H  0.72485495  0.11124329  0.08948629     0.31700
H1607       H  0.77896774  0.14250739  0.16203016     0.30600
H1608       H  0.80566206  0.11789959  0.21131473     0.32300
H1609       H  0.84964050  0.06249578  0.21150273     0.31300
H1610       H  0.70867044  0.07919631  0.15260752     0.35300
H1611       H  0.72125799  0.05554418  0.20738166     0.28000
H1612       H  0.81139116  0.07060974  0.97021279     0.32200
H1613       H  0.84866241  0.07041446  0.10331872     0.35100
H1614       H  0.75837500  0.13640999  0.14069673     0.27700
H1615       H  0.72170014  0.03187051  0.21398392     0.40600
H1616       H  0.73783272  0.02433208  0.05212780     0.30600
H1617       H  0.71091993  0.05131494  0.03917354     0.38200
H1618       H  0.82966763  0.05952716  0.23683553     0.30100
H1619       H  0.78661617  0.97717469  0.08242978     0.30100
H1620       H  0.82902013  0.06471165  0.99992693     0.30400
Zr1621     Zr  0.68298048  0.04761282  0.79557148     2.17500
O1622       O  0.67615834  0.07444129  0.74614676    -0.51900
O1623       O  0.68573360  0.01844033  0.74786275    -0.75100
O1624       O  0.71968498  0.05665943  0.76411994    -0.81900
O1625       O  0.62706343  0.04052460  0.83420951    -0.83700
O1626       O  0.74247630  0.06442219  0.81193300    -0.79300
O1627       O  0.64666552  0.05033256  0.77944442    -0.90900
O1628       O  0.66590282  0.99477810  0.77748771    -0.76900
O1629       O  0.70095179  0.01982937  0.81383346    -0.86400
O1630       O  0.66091977  0.02332571  0.83271788    -0.86100
O1631       O  0.70586897  0.06575534  0.83764241    -0.72800
O1632       O  0.66792949  0.06066570  0.85869686    -0.85000
Zr1633     Zr  0.70186968  0.02181500  0.94114651     2.26400
Zr1634     Zr  0.72758501  0.03685283  0.84531367     2.06300
Zr1635     Zr  0.64901772  0.03480504  0.89763405     2.10000
Zr1636     Zr  0.68007313  0.99482868  0.84371113     1.78800
O1637       O  0.63564720  0.06516203  0.93048287    -0.93800
O1638       O  0.68496051  0.96119381  0.81324530    -0.41600
O1639       O  0.67191488  0.00709554  0.90853577    -0.78200
O1640       O  0.70925508  0.00798846  0.87556016    -0.96900
O1641       O  0.71655549  0.04988655  0.90699060    -0.90200
O1642       O  0.67690365  0.04868923  0.93649975    -0.93100
C1643       C  0.67731485  0.00045726  0.74901213     1.00700
C1644       C  0.62933939  0.04554437  0.79595063     1.13600
C1645       C  0.73861467  0.06201053  0.77549058     1.04400
O1646       O  0.72842998  0.01678026  0.78413338    -0.95200
O1647       O  0.74746992  0.03005826  0.90159148    -0.90900
O1648       O  0.73321546  0.00267370  0.92540727    -0.84100
C1649       C  0.74684758  0.01101395  0.90286203     1.11100
O1650       O  0.67302184  0.10513847  0.87593453    -0.97200
Zr1651     Zr  0.69286269  0.07653958  0.90157641     1.88900
O1652       O  0.72608636  0.04631272  0.97195208    -0.73800
O1653       O  0.76543962  0.03779079  0.84333463    -0.53100
O1654       O  0.71580366  0.10466722  0.88261325    -0.97800
O1655       O  0.67391054  0.09267425  0.95612313    -0.55000
O1656       O  0.71949711  0.07912340  0.95296829    -0.74300
C1657       C  0.72980952  0.06575588  0.97261204     0.98000
O1658       O  0.70903002  0.99757525  0.99425258    -0.63200
O1659       O  0.61431759  0.02232953  0.91010304    -0.58000
O1660       O  0.67643062  0.01848014  0.99425423    -0.94700
O1661       O  0.64749710  0.01013431  0.96122345    -0.93100
O1662       O  0.64545598  0.98607994  0.86607081    -0.93400
O1663       O  0.68889493  0.96345700  0.87866549    -0.92200
C1664       C  0.65953797  0.00837280  0.99314885     1.16800
H1665       H  0.65004071  0.01730863  0.81718544     0.32800
H1666       H  0.71579419  0.99506944  0.87260667     0.43600
H1667       H  0.67235916  0.05286525  0.96287755     0.37200
H1668       H  0.71074436  0.07792509  0.82387855     0.33600
H1669       H  0.67146141  0.95712863  0.80200013     0.25400
H1670       H  0.76995502  0.03368748  0.81629550     0.31400
H1671       H  0.71390810  0.11511967  0.90382555     0.37300
H1672       H  0.63873204  0.97983306  0.84218773     0.31700
H1673       H  0.60537193  0.03385693  0.90269816     0.30600
H1674       H  0.63101631  0.06022080  0.95723002     0.32300
H1675       H  0.67812316  0.10728835  0.95513714     0.31300
H1676       H  0.67618884  0.95931584  0.89299171     0.35300
H1677       H  0.71469493  0.98556132  0.98054006     0.28000
H1678       H  0.68404676  0.07050622  0.72195686     0.32200
H1679       H  0.67455292  0.10438159  0.84628452     0.35100
H1680       H  0.61178903  0.01187289  0.88899978     0.27700
H1681       H  0.72079810  0.00367530  0.00853254     0.40600
H1682       H  0.73357560  0.00329154  0.79172403     0.30600
H1683       H  0.69376271  0.96341300  0.78953557     0.38200
H1684       H  0.68025893  0.08750780  0.98122192     0.30100
H1685       H  0.77085739  0.05186089  0.84787881     0.30100
H1686       H  0.68341984  0.08674134  0.75666825     0.30400
Zr1687     Zr  0.69840125  0.93288124  0.54964936     2.17500
O1688       O  0.67282674  0.92460591  0.49867496    -0.51900
O1689       O  0.72707084  0.93588105  0.50167165    -0.75100
O1690       O  0.68941193  0.96929356  0.51724137    -0.81900
O1691       O  0.70478243  0.87782382  0.59171888    -0.83700
O1692       O  0.68383798  0.99310679  0.56437317    -0.79300
O1693       O  0.69456202  0.89644729  0.53618351    -0.90900
O1694       O  0.75061905  0.91639439  0.53084700    -0.76900
O1695       O  0.72795357  0.95268263  0.56010649    -0.86400
O1696       O  0.72300826  0.91189263  0.58715724    -0.86100
O1697       O  0.68217820  0.95691650  0.59078244    -0.72800
O1698       O  0.68610170  0.91905286  0.61460337    -0.85000
Zr1699     Zr  0.72621495  0.95427569  0.69416526     2.26400
Zr1700     Zr  0.71163137  0.97914631  0.59665075     2.06300
Zr1701     Zr  0.71210772  0.90078563  0.65332920     2.10000
Zr1702     Zr  0.75195803  0.93142350  0.59637252     1.78800
O1703       O  0.68308646  0.88613655  0.68968960    -0.93800
O1704       O  0.78569725  0.93328803  0.56461029    -0.41600
O1705       O  0.74039810  0.92407873  0.66244713    -0.78200
O1706       O  0.73989149  0.96096073  0.62781167    -0.96900
O1707       O  0.69876095  0.96871960  0.65905450    -0.90200
O1708       O  0.69876490  0.92913852  0.69105775    -0.93100
C1709       C  0.74478043  0.92753572  0.50220605     1.00700
C1710       C  0.69919984  0.87944265  0.55367657     1.13600
C1711       C  0.68471537  0.98840163  0.52802702     1.04400
O1712       O  0.73630133  0.98274108  0.54216147    -0.95200
O1713       O  0.71762130  0.99761165  0.65486761    -0.90900
O1714       O  0.74569242  0.98567092  0.67813288    -0.84100
C1715       C  0.73660353  0.99842081  0.65533292     1.11100
O1716       O  0.64232450  0.92696635  0.62600208    -0.97200
Zr1717     Zr  0.67146491  0.94505249  0.65572503     1.88900
O1718       O  0.70290245  0.97916319  0.72435667    -0.73800
O1719       O  0.70757229  0.01585859  0.58217126    -0.53100
O1720       O  0.64197315  0.96636165  0.64161845    -0.97800
O1721       O  0.65596521  0.92609251  0.71153611    -0.55000
O1722       O  0.67031934  0.97417249  0.70208555    -0.74300
C1723       C  0.68389840  0.98402882  0.72268523     0.98000
O1724       O  0.74885963  0.96372906  0.74891894    -0.63200
O1725       O  0.72557114  0.86645018  0.66314407    -0.58000
O1726       O  0.72792130  0.92926958  0.74815938    -0.94700
O1727       O  0.73661980  0.90024676  0.71693247    -0.93100
O1728       O  0.76002924  0.89839690  0.62622549    -0.93400
O1729       O  0.78422115  0.94508047  0.61998193    -0.92200
C1730       C  0.73814343  0.91274812  0.74816866     1.16800
H1731       H  0.72844387  0.90064486  0.57221504     0.32800
H1732       H  0.75287697  0.96777977  0.62522946     0.43600
H1733       H  0.69443671  0.92481366  0.71753003     0.37200
H1734       H  0.66985910  0.96144510  0.57796264     0.33600
H1735       H  0.78853038  0.91920969  0.55523818     0.25400
H1736       H  0.70570554  0.02343638  0.60771806     0.31400
H1737       H  0.63292033  0.96453870  0.66532205     0.37300
H1738       H  0.76389274  0.88971638  0.60305790     0.31700
H1739       H  0.71358875  0.85712792  0.66053903     0.30600
H1740       H  0.68912246  0.88047668  0.71467932     0.32300
H1741       H  0.64111279  0.92857587  0.70890361     0.31300
H1742       H  0.78829332  0.93496539  0.64072589     0.35300
H1743       H  0.76154823  0.96914890  0.73687814     0.28000
H1744       H  0.67621075  0.93375473  0.47568108     0.32200
H1745       H  0.64531310  0.91224991  0.62967434     0.35100
H1746       H  0.73396573  0.86373026  0.63891019     0.27700
H1747       H  0.74233748  0.97599135  0.75986551     0.40600
H1748       H  0.72856563  0.98079571  0.51682011     0.30600
H1749       H  0.78430291  0.94146397  0.53970776     0.38200
H1750       H  0.66001986  0.93385106  0.73595227     0.30100
H1751       H  0.72022466  0.02140851  0.57002138     0.30100
H1752       H  0.65993423  0.93007077  0.50965921     0.30400
Zr1753     Zr  0.81201439  0.54541747  0.30617287     2.17500
O1754       O  0.82041259  0.57056697  0.25407921    -0.51900
O1755       O  0.81412281  0.51569014  0.25952123    -0.75100
O1756       O  0.84900413  0.54803290  0.29672057    -0.81900
O1757       O  0.75742687  0.56754141  0.31406428    -0.83700
O1758       O  0.86313724  0.52633221  0.34232545    -0.79300
O1759       O  0.77886074  0.55581644  0.26783134    -0.90900
O1760       O  0.83080703  0.49368832  0.29785450    -0.76900
O1761       O  0.83112705  0.51962002  0.34272291    -0.86400
O1762       O  0.78746453  0.51809804  0.31608752    -0.86100
O1763       O  0.82594752  0.55751880  0.37176217    -0.72800
O1764       O  0.78884492  0.56486046  0.34721098    -0.85000
Zr1765     Zr  0.79173864  0.52004844  0.45193899     2.26400
Zr1766     Zr  0.84371095  0.53005287  0.40824231     2.06300
Zr1767     Zr  0.76390326  0.53858261  0.35370595     2.10000
Zr1768     Zr  0.80805249  0.49351375  0.35341177     1.78800
O1769       O  0.73093062  0.55241742  0.37383523    -0.93800
O1770       O  0.83858762  0.47547105  0.37601278    -0.41600
O1771       O  0.79430992  0.52391351  0.38150230    -0.78200
O1772       O  0.81901104  0.50313122  0.41848867    -0.96900
O1773       O  0.81783488  0.54560540  0.44922875    -0.90200
O1774       O  0.77423236  0.54798493  0.41790868    -0.93100
C1775       C  0.82212877  0.49791573  0.26516503     1.00700
C1776       C  0.76099702  0.56347428  0.27778694     1.13600
C1777       C  0.86284484  0.53511802  0.30683898     1.04400
O1778       O  0.87832153  0.51857286  0.42203886    -0.95200
O1779       O  0.84462585  0.50750707  0.47399059    -0.90900
O1780       O  0.81647732  0.51771365  0.50660672    -0.84100
C1781       C  0.83220722  0.50623952  0.50520837     1.11100
O1782       O  0.81778815  0.60403495  0.39049245    -0.97200
Zr1783     Zr  0.80067930  0.57304371  0.41520870     1.88900
O1784       O  0.76801842  0.54101016  0.48967590    -0.73800
O1785       O  0.86166454  0.56073157  0.43159710    -0.53100
O1786       O  0.82384266  0.58436564  0.46853788    -0.97800
O1787       O  0.77902425  0.60286764  0.40630049    -0.55000
O1788       O  0.77603648  0.57414579  0.47268117    -0.74300
C1789       C  0.76508601  0.56049012  0.49156644     0.98000
O1790       O  0.78751614  0.48537432  0.47932133    -0.63200
O1791       O  0.74120447  0.52122808  0.30619584    -0.58000
O1792       O  0.77139739  0.49588996  0.41533451    -0.94700
O1793       O  0.75078351  0.52085945  0.40784549    -0.93100
O1794       O  0.79929082  0.46303565  0.31599475    -0.93400
O1795       O  0.78769310  0.46617870  0.38200361    -0.92200
C1796       C  0.75633831  0.50345501  0.39792402     1.16800
H1797       H  0.78124039  0.51253614  0.29196482     0.32800
H1798       H  0.82320381  0.49084121  0.43224942     0.43600
H1799       H  0.76119113  0.55356389  0.42446799     0.37200
H1800       H  0.83600809  0.56794748  0.36574424     0.33600
H1801       H  0.84042508  0.46416203  0.35657311     0.25400
H1802       H  0.86511803  0.55774760  0.46005237     0.31400
H1803       H  0.81566941  0.58341925  0.49361341     0.37300
H1804       H  0.81203302  0.45503494  0.31435725     0.31700
H1805       H  0.72734741  0.52604555  0.31313900     0.30600
H1806       H  0.73391469  0.56661101  0.38279724     0.32300
H1807       H  0.77970742  0.61024413  0.43234330     0.31300
H1808       H  0.79706188  0.46162251  0.40344216     0.35300
H1809       H  0.77391448  0.47904367  0.47464432     0.28000
H1810       H  0.82667918  0.56260285  0.23203754     0.32200
H1811       H  0.81881925  0.61333954  0.41396913     0.35100
H1812       H  0.74411517  0.52793089  0.28060891     0.27700
H1813       H  0.79728954  0.47684586  0.46456513     0.40600
H1814       H  0.87753380  0.50347302  0.41928009     0.30600
H1815       H  0.85016405  0.48499520  0.37058697     0.38200
H1816       H  0.76491142  0.59718542  0.40513098     0.30100
H1817       H  0.87496258  0.56063410  0.41730342     0.30100
H1818       H  0.83170065  0.57910782  0.26520279     0.30400
Zr1819     Zr  0.69751776  0.55495014  0.54391767     2.17500
O1820       O  0.67488195  0.55964560  0.48632607    -0.51900
O1821       O  0.72942592  0.55701159  0.50377329    -0.75100
O1822       O  0.69506488  0.59090755  0.52586194    -0.81900
O1823       O  0.68035425  0.49791764  0.55572145    -0.83700
O1824       O  0.70594049  0.61091524  0.57836299    -0.79300
O1825       O  0.69033842  0.52024499  0.50847339    -0.90900
O1826       O  0.74789972  0.57789942  0.54209370    -0.76900
O1827       O  0.71885820  0.57845172  0.58265595    -0.86400
O1828       O  0.72580060  0.53412496  0.56324252    -0.86100
O1829       O  0.68032684  0.56943475  0.60354830    -0.72800
O1830       O  0.67833930  0.53045088  0.58299966    -0.85000
Zr1831     Zr  0.71483616  0.54118055  0.69611227     2.26400
Zr1832     Zr  0.70371782  0.59088848  0.64408797     2.06300
Zr1833     Zr  0.70623039  0.50954677  0.60016079     2.10000
Zr1834     Zr  0.74579814  0.55860170  0.60249109     1.78800
O1835       O  0.69479488  0.47631224  0.62702120    -0.93800
O1836       O  0.75921315  0.59379749  0.61062658    -0.41600
O1837       O  0.71800780  0.54010765  0.62757071    -0.78200
O1838       O  0.73173495  0.56931468  0.66372267    -0.96900
O1839       O  0.68765002  0.56425404  0.68446600    -0.90200
O1840       O  0.69084913  0.51979995  0.65914463    -0.93100
C1841       C  0.74626933  0.56666638  0.51161162     1.00700
C1842       C  0.68411257  0.50178189  0.51926089     1.13600
C1843       C  0.70118496  0.60824054  0.54035815     1.04400
O1844       O  0.70991147  0.62725407  0.65529247    -0.95200
O1845       O  0.72472804  0.59748266  0.70960867    -0.90900
O1846       O  0.71416262  0.56996509  0.74388105    -0.84100
C1847       C  0.72573970  0.58593078  0.74185064     1.11100
O1848       O  0.63350593  0.55668702  0.61353437    -0.97200
Zr1849     Zr  0.66424239  0.54341762  0.64542112     1.88900
O1850       O  0.69113065  0.51703570  0.73131857    -0.73800
O1851       O  0.67054047  0.60351375  0.66517827    -0.53100
O1852       O  0.64616501  0.56505492  0.69291795    -0.97800
O1853       O  0.63842783  0.51780523  0.62697225    -0.55000
O1854       O  0.65936961  0.52070924  0.70394207    -0.74300
C1855       C  0.67184908  0.51221798  0.72871223     0.98000
O1856       O  0.73803180  0.52483137  0.74350561    -0.63200
O1857       O  0.72556593  0.48528206  0.55928675    -0.58000
O1858       O  0.74695261  0.52892742  0.66849307    -0.94700
O1859       O  0.72498832  0.50534141  0.65848126    -0.93100
O1860       O  0.77424878  0.54038278  0.57402982    -0.93400
O1861       O  0.77352257  0.55775007  0.65143480    -0.92200
C1862       C  0.74285129  0.51174041  0.65341063     1.16800
H1863       H  0.73314584  0.52757120  0.54185081     0.32800
H1864       H  0.74345696  0.57446650  0.67832143     0.43600
H1865       H  0.68682239  0.50610840  0.66695310     0.37200
H1866       H  0.66977650  0.57822467  0.59363463     0.33600
H1867       H  0.77093835  0.59537772  0.59189867     0.25400
H1868       H  0.67316839  0.61008466  0.69160616     0.31400
H1869       H  0.63430187  0.55661514  0.70177301     0.37300
H1870       H  0.78446066  0.55114472  0.56703376     0.31700
H1871       H  0.72216847  0.47155869  0.57038053     0.30600
H1872       H  0.67968174  0.47624044  0.62484735     0.32300
H1873       H  0.62770388  0.51884919  0.64791001     0.31300
H1874       H  0.78321770  0.56887453  0.64385315     0.35300
H1875       H  0.74383076  0.51242439  0.73145482     0.28000
H1876       H  0.68344343  0.56642649  0.46543062     0.32200
H1877       H  0.63476169  0.57178235  0.61553366     0.35100
H1878       H  0.71871738  0.48487382  0.53311289     0.27700
H1879       H  0.74966563  0.53446252  0.74648787     0.40600
H1880       H  0.72498163  0.62886836  0.65399748     0.30600
H1881       H  0.74870690  0.60330769  0.60044161     0.38200
H1882       H  0.64497037  0.50445390  0.63230310     0.30100
H1883       H  0.66773948  0.61503869  0.64661321     0.30100
H1884       H  0.66495546  0.57012088  0.49471629     0.30400
Zr1885     Zr  0.79418354  0.44713295  0.04222448     2.17500
O1886       O  0.81937886  0.43974985  0.99012593    -0.51900
O1887       O  0.76204461  0.45015109  0.00079000    -0.75100
O1888       O  0.78896760  0.41194117  0.01720044    -0.81900
O1889       O  0.81505540  0.50422186  0.05072481    -0.83700
O1890       O  0.77572305  0.39211137  0.06812387    -0.79300
O1891       O  0.80148454  0.48221680  0.00629739    -0.90900
O1892       O  0.74199321  0.43036909  0.03779259    -0.76900
O1893       O  0.76788506  0.42664918  0.07529946    -0.86400
O1894       O  0.77110092  0.47289459  0.06281867    -0.86100
O1895       O  0.80662707  0.42861847  0.10325122    -0.72800
O1896       O  0.81522729  0.46307332  0.09048409    -0.85000
Zr1897     Zr  0.77361140  0.45879400  0.19311776     2.26400
Zr1898     Zr  0.77868127  0.40941183  0.13616441     2.06300
Zr1899     Zr  0.79617708  0.49056205  0.10393653     2.10000
Zr1900     Zr  0.74508300  0.45116898  0.09538200     1.78800
O1901       O  0.82931637  0.50350473  0.12773753    -0.93800
O1902       O  0.72295925  0.42141477  0.10867646    -0.41600
O1903       O  0.77791307  0.45975742  0.12310814    -0.78200
O1904       O  0.75397073  0.43470608  0.15571512    -0.96900
O1905       O  0.79664709  0.43142806  0.18325324    -0.90200
O1906       O  0.80271225  0.47718535  0.16609391    -0.93100
C1907       C  0.74462054  0.44105596  0.00690321     1.00700
C1908       C  0.80899966  0.50048091  0.01577684     1.13600
C1909       C  0.78057211  0.39516909  0.03035948     1.04400
O1910       O  0.76470821  0.37465343  0.13816370    -0.95200
O1911       O  0.75613381  0.40364494  0.19976005    -0.90900
O1912       O  0.77046347  0.42825575  0.23676762    -0.84100
C1913       C  0.75697700  0.41395483  0.23354009     1.11100
O1914       O  0.85483720  0.42959241  0.13334425    -0.97200
Zr1915     Zr  0.82505755  0.44940908  0.15338280     1.88900
O1916       O  0.79602270  0.47772148  0.23851698    -0.73800
O1917       O  0.80835758  0.39008958  0.15790520    -0.53100
O1918       O  0.83251030  0.42336477  0.20421610    -0.97800
O1919       O  0.85784104  0.46711919  0.14396399    -0.55000
O1920       O  0.82833494  0.47173026  0.21553040    -0.74300
C1921       C  0.81552701  0.48067697  0.23968111     0.98000
O1922       O  0.74135693  0.47072089  0.22208478    -0.63200
O1923       O  0.78769952  0.52650420  0.09152803    -0.58000
O1924       O  0.75425002  0.48007581  0.14796845    -0.94700
O1925       O  0.77541885  0.50595359  0.14995122    -0.93100
O1926       O  0.71736124  0.46820439  0.06140583    -0.93400
O1927       O  0.71949541  0.46681806  0.13729281    -0.92200
C1928       C  0.75908026  0.49806635  0.13753318     1.16800
H1929       H  0.76567919  0.48126830  0.04158426     0.32800
H1930       H  0.74149541  0.43077170  0.16926211     0.43600
H1931       H  0.80647416  0.49043168  0.17632885     0.37200
H1932       H  0.81621254  0.41855261  0.09359151     0.33600
H1933       H  0.71166421  0.42233083  0.08889153     0.25400
H1934       H  0.80281056  0.37974489  0.17698577     0.31400
H1935       H  0.84038331  0.43068877  0.22544408     0.37300
H1936       H  0.70614701  0.45789044  0.06014910     0.31700
H1937       H  0.80078639  0.53431677  0.09159734     0.30600
H1938       H  0.82650154  0.51730325  0.13877086     0.32300
H1939       H  0.85776490  0.47880511  0.16293920     0.31300
H1940       H  0.71623761  0.45515276  0.15521887     0.35300
H1941       H  0.73429637  0.48057248  0.20448645     0.28000
H1942       H  0.81128302  0.43523441  0.96638873     0.32200
H1943       H  0.86349605  0.42822902  0.15773715     0.35100
H1944       H  0.78261146  0.52737036  0.06354265     0.27700
H1945       H  0.73269803  0.45831299  0.22015075     0.40600
H1946       H  0.75043939  0.37597485  0.12850263     0.30600
H1947       H  0.73083042  0.40925964  0.10036740     0.38200
H1948       H  0.85697525  0.47344446  0.11688260     0.30100
H1949       H  0.81231657  0.38210380  0.13385599     0.30100
H1950       H  0.82636742  0.42724730  0.99955898     0.30400
Zr1951     Zr  0.67428268  0.45183378  0.80438204     2.17500
O1952       O  0.66669674  0.42199644  0.76263218    -0.51900
O1953       O  0.67182873  0.47702166  0.74889070    -0.75100
O1954       O  0.63740887  0.44761188  0.79658701    -0.81900
O1955       O  0.73002018  0.43668839  0.81699474    -0.83700
O1956       O  0.62294215  0.46975380  0.84077403    -0.79300
O1957       O  0.70779120  0.44165628  0.76768064    -0.90900
O1958       O  0.65404913  0.49900890  0.78406344    -0.76900
O1959       O  0.65472680  0.47783194  0.83903067    -0.86400
O1960       O  0.69538726  0.48204224  0.80881478    -0.86100
O1961       O  0.66128079  0.44155355  0.87173472    -0.72800
O1962       O  0.70011007  0.43856675  0.84735569    -0.85000
Zr1963     Zr  0.69683262  0.48529470  0.94236551     2.26400
Zr1964     Zr  0.64357146  0.46953304  0.90624180     2.06300
Zr1965     Zr  0.72236752  0.46808693  0.84836282     2.10000
Zr1966     Zr  0.67415203  0.50750003  0.84171308     1.78800
O1967       O  0.75925233  0.46167940  0.84858749    -0.93800
O1968       O  0.63911825  0.51690025  0.86084578    -0.41600
O1969       O  0.70190208  0.49373244  0.87547189    -0.78200
O1970       O  0.66684046  0.49785851  0.90861482    -0.96900
O1971       O  0.67198471  0.45805161  0.94523320    -0.90200
O1972       O  0.71212778  0.45605658  0.91027384    -0.93100
C1973       C  0.66425889  0.49494359  0.75311093     1.00700
C1974       C  0.72635938  0.43713232  0.77991412     1.13600
C1975       C  0.62330858  0.46033063  0.80591216     1.04400
O1976       O  0.60916215  0.48189348  0.91859706    -0.95200
O1977       O  0.64432631  0.49291990  0.97151886    -0.90900
O1978       O  0.67390630  0.48375808  0.99970319    -0.84100
C1979       C  0.65789684  0.49466332  0.00088930     1.11100
O1980       O  0.67059095  0.39747636  0.89900093    -0.97200
Zr1981     Zr  0.68821943  0.42961761  0.91485626     1.88900
O1982       O  0.72236631  0.46547097  0.97945948    -0.73800
O1983       O  0.62745504  0.43954473  0.93699188    -0.53100
O1984       O  0.66832605  0.42096578  0.97467755    -0.97800
O1985       O  0.70987287  0.39988279  0.90547786    -0.55000
O1986       O  0.71460715  0.43153689  0.96976336    -0.74300
C1987       C  0.72601169  0.44624665  0.98427196     0.98000
O1988       O  0.69434251  0.52073266  0.96553768    -0.63200
O1989       O  0.74288522  0.48721768  0.79986276    -0.58000
O1990       O  0.72704462  0.50502220  0.92891286    -0.94700
O1991       O  0.73975708  0.47671593  0.90839265    -0.93100
O1992       O  0.68179665  0.53713756  0.79915107    -0.93400
O1993       O  0.67466272  0.54349951  0.86078080    -0.92200
C1994       C  0.73981508  0.49560153  0.90783327     1.16800
H1995       H  0.70090033  0.48682952  0.78365012     0.32800
H1996       H  0.66108194  0.50977723  0.92115947     0.43600
H1997       H  0.72424455  0.44795539  0.91433235     0.37200
H1998       H  0.65146086  0.43042234  0.86783170     0.33600
H1999       H  0.63717521  0.53097573  0.85047965     0.25400
H2000       H  0.62246530  0.44447675  0.96339987     0.31400
H2001       H  0.67678744  0.41092067  0.98933834     0.37300
H2002       H  0.66856491  0.54126722  0.78709319     0.31700
H2003       H  0.74880461  0.47694802  0.78179968     0.30600
H2004       H  0.76104012  0.44906230  0.86480613     0.32300
H2005       H  0.70955490  0.39265534  0.93175255     0.31300
H2006       H  0.66683798  0.54420516  0.88630764     0.35300
H2007       H  0.70773263  0.52772185  0.96342933     0.28000
H2008       H  0.65744986  0.42695872  0.74119829     0.32200
H2009       H  0.65654078  0.39902285  0.90965457     0.35100
H2010       H  0.73281697  0.49467506  0.78384012     0.27700
H2011       H  0.68534383  0.52812508  0.94676846     0.40600
H2012       H  0.61000800  0.49678160  0.91285890     0.30600
H2013       H  0.62973831  0.50852224  0.84399508     0.38200
H2014       H  0.72393787  0.40561786  0.90357911     0.30100
H2015       H  0.61489266  0.43716720  0.92088303     0.30100
H2016       H  0.65803132  0.41295711  0.77973225     0.30400
Zr2017     Zr  0.79086140  0.57175750  0.96742388     2.17500
O2018       O  0.81950157  0.58088786  0.01125945    -0.51900
O2019       O  0.76552398  0.57353559  0.02288583    -0.75100
O2020       O  0.79295479  0.60898938  0.97326159    -0.81900
O2021       O  0.80963537  0.51579771  0.95101482    -0.83700
O2022       O  0.76890570  0.62142393  0.93052415    -0.79300
O2023       O  0.80245650  0.53728374  0.00059313    -0.90900
O2024       O  0.74213878  0.58968034  0.98758921    -0.76900
O2025       O  0.76375004  0.58948468  0.93210738    -0.86400
O2026       O  0.76190051  0.54929262  0.96393737    -0.86100
O2027       O  0.80016972  0.58499586  0.89966431    -0.72800
O2028       O  0.80561293  0.54660231  0.92528090    -0.85000
Zr2029     Zr  0.75813140  0.54691996  0.83017318     2.26400
Zr2030     Zr  0.77112975  0.60107446  0.86507574     2.06300
Zr2031     Zr  0.77731943  0.52297001  0.92514535     2.10000
Zr2032     Zr  0.73525447  0.56849734  0.93049843     1.78800
O2033       O  0.78177590  0.48581863  0.93031713    -0.93800
O2034       O  0.71953164  0.60042755  0.90753741    -0.41600
O2035       O  0.75130625  0.54233031  0.89759430    -0.78200
O2036       O  0.74401923  0.57638575  0.86324434    -0.96900
O2037       O  0.78409382  0.57312167  0.82650417    -0.90200
O2038       O  0.78813761  0.53272566  0.86186637    -0.93100
C2039       C  0.74713754  0.58004128  0.01886556     1.00700
C2040       C  0.80831964  0.51906060  0.98806140     1.13600
C2041       C  0.77887534  0.62191107  0.96481921     1.04400
O2042       O  0.75881147  0.63536080  0.85049766    -0.95200
O2043       O  0.74660895  0.59975289  0.80189692    -0.90900
O2044       O  0.75346686  0.56940620  0.77263698    -0.84100
C2045       C  0.74349145  0.58615216  0.77300219     1.11100
O2046       O  0.84564730  0.57455469  0.87717615    -0.97200
Zr2047     Zr  0.81338015  0.55829359  0.85750770     1.88900
O2048       O  0.77919930  0.52250917  0.79288272    -0.73800
O2049       O  0.80051236  0.61839379  0.83467467    -0.53100
O2050       O  0.82422649  0.57953771  0.80075330    -0.97800
O2051       O  0.84309756  0.53668503  0.86751215    -0.55000
O2052       O  0.81259210  0.53227878  0.80270014    -0.74300
C2053       C  0.79863473  0.52003549  0.78833846     0.98000
O2054       O  0.72373373  0.54482027  0.80184180    -0.63200
O2055       O  0.76213433  0.50599187  0.98303482    -0.58000
O2056       O  0.73830784  0.51822718  0.85375512    -0.94700
O2057       O  0.76690451  0.50394564  0.86864719    -0.93100
O2058       O  0.70560263  0.56365606  0.97442491    -0.93400
O2059       O  0.70487380  0.55219285  0.90557588    -0.92200
C2060       C  0.74809723  0.50470008  0.87246128     1.16800
H2061       H  0.75744872  0.54394833  0.98955804     0.32800
H2062       H  0.73151198  0.58052594  0.85055946     0.43600
H2063       H  0.79559696  0.52036239  0.85751153     0.37200
H2064       H  0.81082680  0.59536878  0.90314563     0.33600
H2065       H  0.70476513  0.59874127  0.91350576     0.25400
H2066       H  0.79492725  0.62546498  0.81070016     0.31400
H2067       H  0.81840857  0.57267496  0.77666122     0.37300
H2068       H  0.69933660  0.57735026  0.97667520     0.31700
H2069       H  0.76901049  0.51182658  0.00699343     0.30600
H2070       H  0.79360183  0.48264760  0.91282813     0.32300
H2071       H  0.84935507  0.53540190  0.84046330     0.31300
H2072       H  0.70996176  0.53979172  0.89198552     0.35300
H2073       H  0.71836928  0.53061868  0.80321583     0.28000
H2074       H  0.81308042  0.58615057  0.03612318     0.32200
H2075       H  0.84437484  0.58910092  0.86920239     0.35100
H2076       H  0.74870117  0.51239705  0.98355573     0.27700
H2077       H  0.71528895  0.55248273  0.82122720     0.40600
H2078       H  0.74458040  0.63527018  0.86069372     0.30600
H2079       H  0.72433071  0.61112288  0.92661354     0.38200
H2080       H  0.83730115  0.52290426  0.87329392     0.30100
H2081       H  0.80401389  0.62956921  0.85373656     0.30100
H2082       H  0.82616864  0.59302157  0.99868685     0.30400
Zr2083     Zr  0.68904183  0.54759549  0.22891189     2.17500
O2084       O  0.68212581  0.57487493  0.27688072    -0.51900
O2085       O  0.68981592  0.51890563  0.27673920    -0.75100
O2086       O  0.65291073  0.54597997  0.24749363    -0.81900
O2087       O  0.74655243  0.56342670  0.21228152    -0.83700
O2088       O  0.63417847  0.53346218  0.19442392    -0.79300
O2089       O  0.72395324  0.55783423  0.26176011    -0.90900
O2090       O  0.66960036  0.49957077  0.23931812    -0.76900
O2091       O  0.66728143  0.52398747  0.19130613    -0.86400
O2092       O  0.70950765  0.51863398  0.21191009    -0.86100
O2093       O  0.67311002  0.56216524  0.16808672    -0.72800
O2094       O  0.71323231  0.56404976  0.18627312    -0.85000
Zr2095     Zr  0.70550920  0.52610689  0.07803843     2.26400
Zr2096     Zr  0.65399684  0.53642235  0.12867447     2.06300
Zr2097     Zr  0.73487764  0.53562295  0.17232273     2.10000
Zr2098     Zr  0.68630689  0.49551983  0.17602958     1.78800
O2099       O  0.77091308  0.54592451  0.16628350    -0.93800
O2100       O  0.64928608  0.49123478  0.16511838    -0.41600
O2101       O  0.71235501  0.51241781  0.14127144    -0.78200
O2102       O  0.67759189  0.50946093  0.11289431    -0.96900
O2103       O  0.68058403  0.55219606  0.08843320    -0.90200
O2104       O  0.72301882  0.55259694  0.11549798    -0.93100
C2105       C  0.68140855  0.50150567  0.26904549     1.00700
C2106       C  0.74258743  0.56270812  0.24935242     1.13600
C2107       C  0.63619139  0.53847087  0.23246515     1.04400
O2108       O  0.61799507  0.52855730  0.11677715    -0.95200
O2109       O  0.64798758  0.51380478  0.06514407    -0.90900
O2110       O  0.67636234  0.52229849  0.03093110    -0.84100
C2111       C  0.65959136  0.51190024  0.03323110     1.11100
O2112       O  0.68397770  0.60838591  0.15753036    -0.97200
Zr2113     Zr  0.69842462  0.57821429  0.12563696     1.88900
O2114       O  0.72734563  0.55200218  0.04308535    -0.73800
O2115       O  0.63994322  0.56861032  0.10471106    -0.53100
O2116       O  0.67501168  0.59328679  0.07704212    -0.97800
O2117       O  0.72247876  0.60583884  0.14182922    -0.55000
O2118       O  0.72063055  0.58398312  0.06686113    -0.74300
C2119       C  0.73051575  0.57163816  0.04402600     0.98000
O2120       O  0.71659578  0.50645857  0.02006431    -0.63200
O2121       O  0.75691301  0.51412746  0.21453303    -0.58000
O2122       O  0.73147341  0.50123239  0.09310076    -0.94700
O2123       O  0.74894149  0.52792760  0.10865649    -0.93100
O2124       O  0.69666269  0.46483085  0.21233807    -0.93400
O2125       O  0.68009533  0.46204060  0.14449565    -0.92200
C2126       C  0.74763869  0.50892270  0.10743518     1.16800
H2127       H  0.71627292  0.51192222  0.23390768     0.32800
H2128       H  0.67307309  0.49759910  0.09804683     0.43600
H2129       H  0.73568682  0.55942268  0.10936035     0.37200
H2130       H  0.66353297  0.57246629  0.17685225     0.33600
H2131       H  0.64734171  0.48432041  0.13884226     0.25400
H2132       H  0.62961219  0.56464186  0.08421252     0.31400
H2133       H  0.68213768  0.60587655  0.06763573     0.37300
H2134       H  0.68378860  0.45796523  0.22104800     0.31700
H2135       H  0.76631749  0.52341781  0.22933440     0.30600
H2136       H  0.77120305  0.55715325  0.14614921     0.32300
H2137       H  0.72134477  0.61576507  0.11933244     0.31300
H2138       H  0.67972067  0.46446681  0.11506979     0.35300
H2139       H  0.72929318  0.49908962  0.02595506     0.28000
H2140       H  0.67593045  0.56787006  0.30049742     0.32200
H2141       H  0.66905772  0.60740324  0.15256659     0.35100
H2142       H  0.74898271  0.50672894  0.23511686     0.27700
H2143       H  0.70631617  0.49547092  0.01791440     0.40600
H2144       H  0.61712508  0.51339732  0.11656593     0.30600
H2145       H  0.64475283  0.48087233  0.18515578     0.38200
H2146       H  0.73618188  0.59975669  0.13848758     0.30100
H2147       H  0.63185900  0.57377270  0.12769547     0.30100
H2148       H  0.67081937  0.58272085  0.26470819     0.30400
Zr2149     Zr  0.70117799  0.43153982  0.46693574     2.17500
O2150       O  0.67293083  0.42379577  0.51266406    -0.51900
O2151       O  0.72748970  0.42971928  0.51987196    -0.75100
O2152       O  0.69597696  0.39477324  0.47379274    -0.81900
O2153       O  0.68614030  0.48784058  0.45392392    -0.83700
O2154       O  0.71695818  0.38005847  0.42791602    -0.79300
O2155       O  0.68995575  0.46496164  0.50294517    -0.90900
O2156       O  0.74947247  0.41197622  0.48409169    -0.76900
O2157       O  0.72592185  0.41148580  0.42944302    -0.86400
O2158       O  0.73155921  0.45212460  0.45900777    -0.86100
O2159       O  0.68879119  0.41873677  0.40112898    -0.72800
O2160       O  0.68753112  0.45793199  0.42655079    -0.85000
Zr2161     Zr  0.73002183  0.45464815  0.32480074     2.26400
Zr2162     Zr  0.71553903  0.40115031  0.36281248     2.06300
Zr2163     Zr  0.71721832  0.47958584  0.42186074     2.10000
Zr2164     Zr  0.75569888  0.43057144  0.42314399     1.78800
O2165       O  0.71014549  0.51637282  0.42074291    -0.93800
O2166       O  0.76550006  0.39535971  0.40626368    -0.41600
O2167       O  0.74078948  0.45808358  0.39094286    -0.78200
O2168       O  0.74374234  0.42460087  0.35675257    -0.96900
O2169       O  0.70271771  0.42986786  0.32598401    -0.90200
O2170       O  0.70261627  0.47082156  0.36085419    -0.93100
C2171       C  0.74552069  0.42265152  0.51464393     1.00700
C2172       C  0.68551008  0.48361239  0.49083195     1.13600
C2173       C  0.70803699  0.38033119  0.46333474     1.04400
O2174       O  0.72492083  0.36600584  0.34718473    -0.95200
O2175       O  0.73787865  0.40087125  0.29655089    -0.90900
O2176       O  0.73052302  0.43109111  0.26790284    -0.84100
C2177       C  0.74015111  0.41418673  0.26683988     1.11100
O2178       O  0.64435591  0.43046373  0.38664977    -0.97200
Zr2179     Zr  0.67579076  0.44634155  0.36133381     1.88900
O2180       O  0.70781737  0.47971213  0.29073583    -0.73800
O2181       O  0.68416863  0.38715361  0.33368674    -0.53100
O2182       O  0.66285025  0.42587712  0.30522467    -0.97800
O2183       O  0.64727171  0.46889847  0.37586413    -0.55000
O2184       O  0.67462551  0.47168078  0.30659422    -0.74300
C2185       C  0.68831571  0.48292786  0.28911416     0.98000
O2186       O  0.75932975  0.45746363  0.28128479    -0.63200
O2187       O  0.73678719  0.49988474  0.47064110    -0.58000
O2188       O  0.75508024  0.48046442  0.34332878    -0.94700
O2189       O  0.72794417  0.49557604  0.36207333    -0.93100
O2190       O  0.78461714  0.44228057  0.46334124    -0.93400
O2191       O  0.78984021  0.42590607  0.39466192    -0.92200
C2192       C  0.74686675  0.49443246  0.36331672     1.16800
H2193       H  0.73734427  0.45789215  0.48319297     0.32800
H2194       H  0.75544933  0.41973014  0.34229376     0.43600
H2195       H  0.69608810  0.48393700  0.35706149     0.37200
H2196       H  0.67781400  0.40910497  0.40596207     0.33600
H2197       H  0.76587885  0.38772685  0.43209037     0.25400
H2198       H  0.68831615  0.38198635  0.30687570     0.31400
H2199       H  0.66450210  0.43466082  0.28105193     0.37300
H2200       H  0.79109527  0.42967056  0.47371352     0.31700
H2201       H  0.72678649  0.50779162  0.48628505     0.30600
H2202       H  0.69832800  0.51794342  0.40231524     0.32300
H2203       H  0.64022995  0.47087428  0.34970255     0.31300
H2204       H  0.78813754  0.42607014  0.36501793     0.35300
H2205       H  0.76501797  0.47157138  0.28061161     0.28000
H2206       H  0.67903400  0.41585496  0.53498276     0.32200
H2207       H  0.63487638  0.42999320  0.36335408     0.35100
H2208       H  0.74284621  0.49015946  0.48964492     0.27700
H2209       H  0.76909924  0.44900144  0.29626618     0.40600
H2210       H  0.73967306  0.36660516  0.34040033     0.30600
H2211       H  0.75378122  0.38926583  0.39152902     0.38200
H2212       H  0.65376846  0.48234735  0.38173574     0.30100
H2213       H  0.68121601  0.37466867  0.34971886     0.30100
H2214       H  0.66398333  0.41390542  0.49812892     0.30400
Zr2215     Zr  0.79813276  0.45342111  0.73040694     2.17500
O2216       O  0.80346914  0.42700442  0.78163110    -0.51900
O2217       O  0.79584469  0.48403914  0.77424225    -0.75100
O2218       O  0.83353683  0.45359986  0.75320562    -0.81900
O2219       O  0.74121534  0.43472417  0.71496449    -0.83700
O2220       O  0.85402299  0.46580421  0.70223421    -0.79300
O2221       O  0.76322821  0.44356211  0.76378460    -0.90900
O2222       O  0.81792561  0.50312665  0.74045765    -0.76900
O2223       O  0.81870845  0.47562471  0.69177913    -0.86400
O2224       O  0.77596070  0.48094377  0.71143438    -0.86100
O2225       O  0.81525497  0.43896658  0.67061206    -0.72800
O2226       O  0.77589020  0.43381851  0.68702991    -0.85000
Zr2227     Zr  0.78687010  0.47463528  0.57909496     2.26400
Zr2228     Zr  0.83595545  0.46477071  0.63457682     2.06300
Zr2229     Zr  0.75324900  0.46067469  0.67113723     2.10000
Zr2230     Zr  0.80082822  0.50343910  0.67821329     1.78800
O2231       O  0.72272938  0.44587440  0.63950965    -0.93800
O2232       O  0.83502044  0.51917957  0.67769657    -0.41600
O2233       O  0.78605616  0.47285958  0.64985740    -0.78200
O2234       O  0.81336416  0.49199656  0.61585838    -0.96900
O2235       O  0.81146744  0.44861130  0.58982237    -0.90200
O2236       O  0.76645429  0.44817086  0.61148522    -0.93100
C2237       C  0.80522045  0.50123562  0.76844754     1.00700
C2238       C  0.74489735  0.43736754  0.75186300     1.13600
C2239       C  0.85067692  0.46088131  0.73993457     1.04400
O2240       O  0.87160367  0.47567754  0.62759640    -0.95200
O2241       O  0.84229528  0.48712808  0.56973876    -0.90900
O2242       O  0.81568104  0.47677891  0.53239031    -0.84100
C2243       C  0.83138944  0.48843259  0.53649172     1.11100
O2244       O  0.80763718  0.39301120  0.65587836    -0.97200
Zr2245     Zr  0.79165768  0.42264775  0.62445377     1.88900
O2246       O  0.76595108  0.45024333  0.53870334    -0.73800
O2247       O  0.85205429  0.43333535  0.61147358    -0.53100
O2248       O  0.81686032  0.40841040  0.57851117    -0.97800
O2249       O  0.76804434  0.39388719  0.63490025    -0.55000
O2250       O  0.77138672  0.41801527  0.56298469    -0.74300
C2251       C  0.76255643  0.43060295  0.53899843     0.98000
O2252       O  0.77005014  0.49972983  0.53655478    -0.63200
O2253       O  0.72728714  0.47838563  0.71011385    -0.58000
O2254       O  0.77267012  0.50462608  0.61268692    -0.94700
O2255       O  0.74849562  0.48261692  0.61743996    -0.93100
O2256       O  0.78061010  0.53002288  0.70868073    -0.93400
O2257       O  0.80059137  0.53199524  0.63090429    -0.92200
C2258       C  0.75514502  0.50009979  0.62568689     1.16800
H2259       H  0.76829045  0.48774517  0.73192198     0.32800
H2260       H  0.81858146  0.50412438  0.60271754     0.43600
H2261       H  0.75355999  0.44359556  0.60123106     0.37200
H2262       H  0.82444679  0.42871170  0.68018060     0.33600
H2263       H  0.83499675  0.53009896  0.69844183     0.25400
H2264       H  0.85929521  0.43728769  0.58635668     0.31400
H2265       H  0.80929461  0.40554225  0.55324234     0.46900
H2266       H  0.79062950  0.54098926  0.71560899     0.31700
H2267       H  0.71428746  0.47488250  0.69632070     0.30600
H2268       H  0.72449834  0.43084616  0.64114772     0.32300
H2269       H  0.77074098  0.38429606  0.61244197     0.31300
H2270       H  0.81084215  0.54208155  0.64084456     0.35300
H2271       H  0.75769414  0.50537291  0.54887634     0.28000
H2272       H  0.80842329  0.43436399  0.80591164     0.32200
H2273       H  0.80747232  0.38205382  0.63525141     0.35100
H2274       H  0.72581996  0.47101082  0.73567035     0.27700
H2275       H  0.78001573  0.51114075  0.53424530     0.40600
H2276       H  0.87215391  0.48962964  0.63926372     0.30600
H2277       H  0.84470380  0.50877821  0.68758017     0.38200
H2278       H  0.75434444  0.39944384  0.62892847     0.30100
H2279       H  0.86312577  0.43082518  0.63119972     0.30100
H2280       H  0.81531564  0.41901277  0.77225957     0.30400
C2281       C  0.71849015  0.82441945  0.42026665     0.79600
N2282       N  0.71707015  0.80361674  0.42403330    -0.78700
C2283       C  0.72154202  0.79118730  0.39242394     0.82100
N2284       N  0.72778345  0.79968858  0.35710140    -0.78600
C2285       C  0.72960079  0.82026551  0.35226093     0.82100
N2286       N  0.72470154  0.83281531  0.38400634    -0.80400
C2287       C  0.76275958  0.82818527  0.11710616     0.79600
N2288       N  0.75929633  0.83572329  0.15532285    -0.78700
C2289       C  0.75361576  0.82262996  0.18600589     0.82100
N2290       N  0.75188094  0.80228856  0.17814841    -0.78600
C2291       C  0.75543202  0.79456787  0.14086065     0.82100
N2292       N  0.76075902  0.80761534  0.11047687    -0.80400
C2293       C  0.71691440  0.66817579  0.40933014     0.79600
N2294       N  0.71573458  0.68884158  0.41575158    -0.78700
C2295       C  0.71946375  0.70235500  0.38511449     0.82100
N2296       N  0.72499610  0.69511028  0.34844209    -0.78600
C2297       C  0.72637182  0.67479155  0.34110159     0.82100
N2298       N  0.72222599  0.66126146  0.37162330    -0.80400
C2299       C  0.75443936  0.67255393  0.10427914     0.79600
N2300       N  0.75375323  0.69345019  0.10023763    -0.78700
C2301       C  0.74895997  0.70556022  0.13235721     0.82100
N2302       N  0.74523515  0.69665328  0.16851670    -0.78600
C2303       C  0.74559711  0.67613172  0.17357186     0.82100
N2304       N  0.75025505  0.66397195  0.14137132    -0.80400
C2305       C  0.73284922  0.66836602  0.29970362    -0.00800
C2306       C  0.71804547  0.66226412  0.27104134    -0.12600
C2307       C  0.72252490  0.66236515  0.22924336     0.01500
C2308       C  0.74219000  0.66828179  0.21542164    -0.00900
C2309       C  0.75726674  0.67292891  0.24429788    -0.12600
C2310       C  0.75276581  0.67320103  0.28575691     0.01400
H2311       H  0.70252586  0.65909252  0.28096668     0.14300
H2312       H  0.77224643  0.67810006  0.23418977     0.14300
C2313       C  0.76850201  0.68020514  0.31320873     0.36000
C2314       C  0.70624433  0.65839483  0.20077858     0.35900
N2315       N  0.78117423  0.68593703  0.33497274    -0.44400
N2316       N  0.69331180  0.65536877  0.17760437    -0.44400
C2317       C  0.74882882  0.72846925  0.12990854    -0.00800
C2318       C  0.76326883  0.73900580  0.10588422    -0.12600
C2319       C  0.76556300  0.76052419  0.10811499     0.01500
C2320       C  0.75297671  0.77199865  0.13423285    -0.00900
C2321       C  0.73807694  0.76148520  0.15690868    -0.12600
C2322       C  0.73589112  0.74015186  0.15510230     0.01400
H2323       H  0.77353992  0.73035054  0.08694755     0.14300
H2324       H  0.72811204  0.77001004  0.17673756     0.14300
C2325       C  0.72020090  0.73081186  0.18000565     0.36000
C2326       C  0.78195596  0.77019535  0.08571572     0.35900
N2327       N  0.70769598  0.72350537  0.20031371    -0.44400
N2328       N  0.79518464  0.77798108  0.06802284    -0.44400
C2329       C  0.73810467  0.82776231  0.31250794    -0.00800
C2330       C  0.72520033  0.83647709  0.28316171    -0.12600
C2331       C  0.73088053  0.83716896  0.24179378     0.01500
C2332       C  0.74987691  0.82924887  0.22889734    -0.00900
C2333       C  0.76329545  0.82205625  0.25875453    -0.12600
C2334       C  0.75763664  0.82121110  0.29975353     0.01400
H2335       H  0.70997905  0.84114160  0.29190479     0.14300
H2336       H  0.77773613  0.81551761  0.24958301     0.14300
C2337       C  0.77158445  0.81186537  0.32791846     0.36000
C2338       C  0.71620071  0.84427085  0.21260701     0.35900
N2339       N  0.78267762  0.80425333  0.35048055    -0.44400
N2340       N  0.70444605  0.84992504  0.18909956    -0.44400
C2341       C  0.71884944  0.76847976  0.39459657    -0.00800
C2342       C  0.71082544  0.75849902  0.36053166    -0.12600
C2343       C  0.70964920  0.73712854  0.35834296     0.01500
C2344       C  0.71725403  0.72495115  0.39022620    -0.00900
C2345       C  0.72418459  0.73483805  0.42547126    -0.12600
C2346       C  0.72491511  0.75644153  0.42797482     0.01400
H2347       H  0.70541951  0.76750000  0.33522285     0.14300
H2348       H  0.72983784  0.72573379  0.45038688     0.14300
C2349       C  0.73295414  0.76577788  0.46415437     0.36000
C2350       C  0.70002397  0.72811733  0.32323242     0.35900
N2351       N  0.73933668  0.77320731  0.49329655    -0.44400
N2352       N  0.69218737  0.72083962  0.29531906    -0.44400
C2353       C  0.77259168  0.63584602  0.99910790    -0.00800
C2354       C  0.77650750  0.62922571  0.03894719    -0.12600
C2355       C  0.77064598  0.64057579  0.07298497     0.01500
C2356       C  0.76044262  0.65946103  0.06848947    -0.00900
C2357       C  0.75658817  0.66626174  0.02863230    -0.12600
C2358       C  0.76236013  0.65467018  0.99436550     0.01400
H2359       H  0.78413805  0.61477871  0.04389996     0.14300
H2360       H  0.74891656  0.68071604  0.02409749     0.14300
C2361       C  0.75812316  0.66272628  0.95475944     0.36000
C2362       C  0.77620184  0.63262735  0.11209856     0.35900
N2363       N  0.75480784  0.66915676  0.92291086    -0.44400
N2364       N  0.78080275  0.62614772  0.14327585    -0.44400
C2365       C  0.71206619  0.65335639  0.44329126    -0.00800
C2366       C  0.71610230  0.65875715  0.48386284    -0.12600
C2367       C  0.71232382  0.64495652  0.51627619     0.01500
C2368       C  0.70395105  0.62513624  0.50887359    -0.00900
C2369       C  0.69917575  0.62032493  0.46823883    -0.12600
C2370       C  0.70313317  0.63388492  0.43613610     0.01400
H2371       H  0.72271104  0.67371892  0.49032739     0.14300
H2372       H  0.69243272  0.60555481  0.46081389     0.14300
C2373       C  0.69724283  0.62740892  0.39609809     0.36000
C2374       C  0.71744134  0.65162600  0.55649536     0.35900
N2375       N  0.69250848  0.62220424  0.36403806    -0.44400
N2376       N  0.72159447  0.65720828  0.58860824    -0.44400
C2377       C  0.70123849  0.86168336  0.52463936    -0.00800
C2378       C  0.71914011  0.84984544  0.52528541    -0.12600
C2379       C  0.72493249  0.83777069  0.49177024     0.01500
C2380       C  0.71301799  0.83747147  0.45605373    -0.00900
C2381       C  0.69460964  0.84831392  0.45613662    -0.12600
C2382       C  0.68859480  0.86006602  0.48977669     0.01400
H2383       H  0.72935207  0.85101253  0.55098558     0.14300
H2384       H  0.68479894  0.84755833  0.42977554     0.14300
C2385       C  0.66924866  0.87045008  0.48759700     0.36000
C2386       C  0.74382932  0.82662821  0.49380555     0.35900
N2387       N  0.65367473  0.87864233  0.48573802    -0.44400
N2388       N  0.75901178  0.81772033  0.49514297    -0.44400
C2389       C  0.78391208  0.86646697  0.01563399    -0.00800
C2390       C  0.76672483  0.85334844  0.01164222    -0.12600
C2391       C  0.75951080  0.84118159  0.04424463     0.01500
C2392       C  0.76936912  0.84180790  0.08240866    -0.00900
C2393       C  0.78688483  0.85433600  0.08610365    -0.12600
C2394       C  0.79425755  0.86630077  0.05348024     0.01400
H2395       H  0.75810335  0.85347712  0.98369458     0.14300
H2396       H  0.79509064  0.85456295  0.11453923     0.14300
C2397       C  0.81275753  0.87818349  0.05974660     0.36000
C2398       C  0.74100873  0.82923038  0.03855508     0.35900
N2399       N  0.82764935  0.88760973  0.06480497    -0.44400
N2400       N  0.72606660  0.81980136  0.03409973    -0.44400
C2401       C  0.88337343  0.04038366  0.75801795    -0.00800
C2402       C  0.89836430  0.02526105  0.75228382    -0.12600
C2403       C  0.91188861  0.01937077  0.78378331     0.01500
C2404       C  0.91043734  0.02811529  0.82291187    -0.00900
C2405       C  0.89607506  0.04366512  0.82823381    -0.12600
C2406       C  0.88317806  0.05015262  0.79652381     0.01400
H2407       H  0.89896425  0.01729213  0.72366072     0.14300
H2408       H  0.89519673  0.05118282  0.85731708     0.14300
C2409       C  0.87033807  0.06750417  0.80450137     0.36000
C2410       C  0.92639045  0.00341152  0.77569610     0.35900
N2411       N  0.86042877  0.08163630  0.81142941    -0.44400
N2412       N  0.93798684  0.99059242  0.76907642    -0.44400
C2413       C  0.92132103  0.00279811  0.96618926    -0.00800
C2414       C  0.91283872  0.01578625  0.99564048    -0.12600
C2415       C  0.91120497  0.00957062  0.03672028     0.01500
C2416       C  0.91854639  0.99025477  0.04940865    -0.00900
C2417       C  0.92566821  0.97690843  0.01940326    -0.12600
C2418       C  0.92683217  0.98282949  0.97854913     0.01400
H2419       H  0.90857260  0.03119691  0.98712064     0.14300
H2420       H  0.93148872  0.96207502  0.02829588     0.14300
C2421       C  0.93472117  0.96833732  0.94979697     0.36000
C2422       C  0.90288563  0.02360387  0.06577543     0.35900
N2423       N  0.94094621  0.95675750  0.92659103    -0.44400
N2424       N  0.89594272  0.03466713  0.08915940    -0.44400
C2425       C  0.90302412  0.97063581  0.19558239    -0.00800
C2426       C  0.90916118  0.97394992  0.23611089    -0.12600
C2427       C  0.89657779  0.96847899  0.26948345     0.01500
C2428       C  0.87722428  0.95889837  0.26337873    -0.00900
C2429       C  0.87165766  0.95491360  0.22263176    -0.12600
C2430       C  0.88395900  0.96072003  0.18951434     0.01400
H2431       H  0.92384265  0.98126811  0.24193814     0.14300
H2432       H  0.85714445  0.94747011  0.21590563     0.14300
C2433       C  0.87660815  0.95569766  0.14962883     0.36000
C2434       C  0.90403161  0.97318777  0.30934745     0.35900
N2435       N  0.87051593  0.95155624  0.11785404    -0.44400
N2436       N  0.91039678  0.97708500  0.34102004    -0.44400
C2437       C  0.02417763  0.01727450  0.88602298    -0.00800
C2438       C  0.01381088  0.03085974  0.86026336    -0.12600
C2439       C  0.99220917  0.03023339  0.85674771     0.01500
C2440       C  0.98052983  0.01588264  0.87949050    -0.00900
C2441       C  0.99114382  0.00137920  0.90261761    -0.12600
C2442       C  0.01252662  0.00184286  0.90584869     0.01400
H2443       H  0.02246622  0.04263350  0.84440684     0.14300
H2444       H  0.98261454  0.98977542  0.91924965     0.14300
C2445       C  0.02208885  0.98621768  0.93011465     0.36000
C2446       C  0.98241563  0.04515871  0.83135215     0.35900
N2447       N  0.02974121  0.97372450  0.94958679    -0.44400
N2448       N  0.97449888  0.05703479  0.81082920    -0.44400
C2449       C  0.07637747  0.00519781  0.07126903    -0.00800
C2450       C  0.06988238  0.02463398  0.05867995    -0.12600
C2451       C  0.07059647  0.03049351  0.01784737     0.01500
C2452       C  0.07803211  0.01689174  0.98833844    -0.00900
C2453       C  0.08607164  0.99808538  0.00125562    -0.12600
C2454       C  0.08519062  0.99213801  0.04223915     0.01400
H2455       H  0.06273783  0.03468633  0.08038914     0.14300
H2456       H  0.09144106  0.98729674  0.97892171     0.14300
C2457       C  0.09155116  0.97177489  0.05314376     0.36000
C2458       C  0.06215621  0.05000205  0.00640156     0.35900
N2459       N  0.09660181  0.95541708  0.06183763    -0.44400
N2460       N  0.05536239  0.06560464  0.99709406    -0.44400
C2461       C  0.01735262  0.98078634  0.14823402    -0.00800
C2462       C  0.00563318  0.98766661  0.18091195    -0.12600
C2463       C  0.98412077  0.98694051  0.17956114     0.01500
C2464       C  0.97404442  0.97917011  0.14491607    -0.00900
C2465       C  0.98590057  0.97095284  0.11366785    -0.12600
C2466       C  0.00727762  0.97152448  0.11520265     0.01400
H2467       H  0.01325455  0.99465732  0.20659360     0.14300
H2468       H  0.97840947  0.96430074  0.08748718     0.14300
C2469       C  0.01858486  0.96228229  0.08268006     0.36000
C2470       C  0.97296682  0.99560087  0.21283214     0.35900
N2471       N  0.02780231  0.95482081  0.05692565    -0.44400
N2472       N  0.96427605  0.00263346  0.23975248    -0.44400
C2473       C  0.58776062  0.02723657  0.69950037    -0.00800
C2474       C  0.60038364  0.04463756  0.69519820    -0.12600
C2475       C  0.61204828  0.05238103  0.72780248     0.01500
C2476       C  0.61208105  0.04227633  0.76593855    -0.00900
C2477       C  0.59859423  0.02543750  0.77069614    -0.12600
C2478       C  0.58636610  0.01814919  0.73837797     0.01400
H2479       H  0.60090601  0.05246189  0.66633559     0.14300
H2480       H  0.59834048  0.01722095  0.79913770     0.14300
C2481       C  0.57303010  0.00071117  0.74550183     0.36000
C2482       C  0.62383183  0.07093770  0.72117296     0.35900
N2483       N  0.56216918  0.98684158  0.75095936    -0.44400
N2484       N  0.63315244  0.08588484  0.71579350    -0.44400
C2485       C  0.57637737  0.00708137  0.55312870    -0.00800
C2486       C  0.58290338  0.98775995  0.53945753    -0.12600
C2487       C  0.58247841  0.98254909  0.49786761     0.01500
C2488       C  0.57496385  0.99654676  0.46891380    -0.00900
C2489       C  0.56987499  0.01629011  0.48247734    -0.12600
C2490       C  0.57074986  0.02163645  0.52367670     0.01400
H2491       H  0.58694759  0.97619692  0.56147453     0.14300
H2492       H  0.56385749  0.02723545  0.46101565     0.14300
C2493       C  0.56437866  0.04184802  0.53557015     0.36000
C2494       C  0.58817907  0.96216016  0.48593499     0.35900
N2495       N  0.55940568  0.05804766  0.54539128    -0.44400
N2496       N  0.59286241  0.94586136  0.47616718    -0.44400
C2497       C  0.58157415  0.97092635  0.32482736    -0.00800
C2498       C  0.59458184  0.95405194  0.32820534    -0.12600
C2499       C  0.60651985  0.94724427  0.29534953     0.01500
C2500       C  0.60671044  0.95790607  0.25772356    -0.00900
C2501       C  0.59291392  0.97429713  0.25387006    -0.12600
C2502       C  0.58028421  0.98053362  0.28646778     0.01400
H2503       H  0.59522235  0.94587636  0.35667033     0.14300
H2504       H  0.59265248  0.98295479  0.22595670     0.14300
C2505       C  0.56676281  0.99756693  0.28041901     0.36000
C2506       C  0.61817484  0.92882480  0.30114887     0.35900
N2507       N  0.55583338  0.01118349  0.27574351    -0.44400
N2508       N  0.62723873  0.91389883  0.30599046    -0.44400
C2509       C  0.47588271  0.00418244  0.65161371    -0.00800
C2510       C  0.48627183  0.01888000  0.67521346    -0.12600
C2511       C  0.50770356  0.02104422  0.67347885     0.01500
C2512       C  0.51920631  0.00809669  0.64807921    -0.00900
C2513       C  0.50886791  0.99268964  0.62640968    -0.12600
C2514       C  0.48756489  0.99057224  0.62801603     0.01400
H2515       H  0.47756732  0.02945768  0.69340893     0.14300
H2516       H  0.51748194  0.98235168  0.60749592     0.14300
C2517       C  0.47819434  0.97421850  0.60490816     0.36000
C2518       C  0.51717202  0.03765272  0.69570838     0.35900
N2519       N  0.47073367  0.96115168  0.58623001    -0.44400
N2520       N  0.52462718  0.05106327  0.71345121    -0.44400
C2521       C  0.41216345  0.98787781  0.48309192    -0.00800
C2522       C  0.40588588  0.00665307  0.49980583    -0.12600
C2523       C  0.40698676  0.01030425  0.54197524     0.01500
C2524       C  0.41472916  0.99517569  0.56831088    -0.00900
C2525       C  0.41948059  0.97597386  0.55182628    -0.12600
C2526       C  0.41815081  0.97223867  0.51007382     0.01400
H2527       H  0.40167616  0.01903427  0.47973946     0.14300
H2528       H  0.42561002  0.96421107  0.57139697     0.14300
C2529       C  0.42455456  0.95259008  0.49499474     0.36000
C2530       C  0.40198470  0.03032204  0.55720768     0.35900
N2531       N  0.42963705  0.93691157  0.48249817    -0.44400
N2532       N  0.39799141  0.04631286  0.56978514    -0.44400
C2533       C  0.46937674  0.98212798  0.39034743    -0.00800
C2534       C  0.48067718  0.97912173  0.42601603    -0.12600
C2535       C  0.50205651  0.97898356  0.42651051     0.01500
C2536       C  0.51334673  0.98182840  0.39032730    -0.00900
C2537       C  0.50220594  0.98395641  0.35413436    -0.12600
C2538       C  0.48051136  0.98411740  0.35381854     0.01400
H2539       H  0.47278070  0.97685837  0.45445254     0.14300
H2540       H  0.51045125  0.98596860  0.32603211     0.14300
C2541       C  0.47029592  0.98670731  0.31566120     0.36000
C2542       C  0.51168298  0.97555498  0.46521666     0.35900
N2543       N  0.46230936  0.98867021  0.28476948    -0.44400
N2544       N  0.51911357  0.97292006  0.49647120    -0.44400
C2545       C  0.70602720  0.13248656  0.51153796    -0.00800
C2546       C  0.72310582  0.14571714  0.50788327    -0.12600
C2547       C  0.73011039  0.15783561  0.54060370     0.01500
C2548       C  0.72016906  0.15704906  0.57864442    -0.00900
C2549       C  0.70266955  0.14447962  0.58200316    -0.12600
C2550       C  0.69546643  0.13255829  0.54919378     0.01400
H2551       H  0.73185004  0.14568880  0.48011731     0.14300
H2552       H  0.69437491  0.14416327  0.61030590     0.14300
C2553       C  0.67693989  0.12065942  0.55522075     0.36000
C2554       C  0.74853399  0.16991028  0.53509405     0.35900
N2555       N  0.66200234  0.11133248  0.56050022    -0.44400
N2556       N  0.76340559  0.17945008  0.53067899    -0.44400
C2557       C  0.75255407  0.17116645  0.80893907    -0.00800
C2558       C  0.73229189  0.17474569  0.79649736    -0.12600
C2559       C  0.72636016  0.17376444  0.75555067     0.01500
C2560       C  0.74073618  0.16929095  0.72506741    -0.00900
C2561       C  0.76074203  0.16430275  0.73765322    -0.12600
C2562       C  0.76662315  0.16500068  0.77898200     0.01400
H2563       H  0.72125722  0.17972802  0.81870969     0.14300
H2564       H  0.77221834  0.16125515  0.71493774     0.14300
C2565       C  0.78755955  0.16079823  0.78961436     0.36000
C2566       C  0.70566341  0.17911064  0.74516621     0.35900
N2567       N  0.80430789  0.15727869  0.79828975    -0.44400
N2568       N  0.68905681  0.18341705  0.73692803    -0.44400
C2569       C  0.77670774  0.16293376  0.95422421    -0.00800
C2570       C  0.79434305  0.15092271  0.95204854    -0.12600
C2571       C  0.80116724  0.13922026  0.98535275     0.01500
C2572       C  0.78993430  0.13843409  0.02218783    -0.00900
C2573       C  0.77278620  0.15128769  0.02491566    -0.12600
C2574       C  0.76635905  0.16354120  0.99187217     0.01400
H2575       H  0.80304318  0.15084919  0.92422862     0.14300
H2576       H  0.76361951  0.15091907  0.05213762     0.14300
C2577       C  0.74833037  0.17584692  0.99664931     0.36000
C2578       C  0.81999189  0.12813477  0.98077739     0.35900
N2579       N  0.73390321  0.18577782  0.00026328    -0.44400
N2580       N  0.83515903  0.11938147  0.97705324    -0.44400
C2581       C  0.72373636  0.33971275  0.56482742    -0.00800
C2582       C  0.73022595  0.33494314  0.52531899    -0.12600
C2583       C  0.72526244  0.34740527  0.49166473     0.01500
C2584       C  0.71297745  0.36497764  0.49652069    -0.00900
C2585       C  0.70621730  0.36932852  0.53616399    -0.12600
C2586       C  0.71152624  0.35726227  0.56968057     0.01400
H2587       H  0.73961184  0.32157004  0.52070760     0.14300
H2588       H  0.69691800  0.38265287  0.54166850     0.14300
C2589       C  0.70372963  0.36320232  0.60865866     0.36000
C2590       C  0.73316612  0.34175897  0.45274527     0.35900
N2591       N  0.69750637  0.36803609  0.63984572    -0.44400
N2592       N  0.73962201  0.33714019  0.42163183    -0.44400
C2593       C  0.73840039  0.27018249  0.62226866    -0.00800
C2594       C  0.75103483  0.26015953  0.65022612    -0.12600
C2595       C  0.75125649  0.23878565  0.65356241     0.01500
C2596       C  0.73826984  0.22653345  0.62906320    -0.00900
C2597       C  0.72681279  0.23638430  0.59877239    -0.12600
C2598       C  0.72687030  0.25796592  0.59502342     0.01400
H2599       H  0.76068358  0.26913506  0.67034277     0.14300
H2600       H  0.71711470  0.22729405  0.57898322     0.14300
C2601       C  0.71423589  0.26706287  0.56428549     0.36000
C2602       C  0.76529296  0.22993776  0.68222456     0.35900
N2603       N  0.70418329  0.27432529  0.53946046    -0.44400
N2604       N  0.77654571  0.22275547  0.70504002    -0.44400
C2605       C  0.74747389  0.33046932  0.79639104    -0.00800
C2606       C  0.76391236  0.33248051  0.76931889    -0.12600
C2607       C  0.76073684  0.33178075  0.72726258     0.01500
C2608       C  0.74078422  0.32939771  0.71134899    -0.00900
C2609       C  0.72424478  0.32880736  0.73836384    -0.12600
C2610       C  0.72742908  0.32911942  0.78041339     0.01400
H2611       H  0.77940911  0.33296969  0.78102153     0.14300
H2612       H  0.70890233  0.32637847  0.72668049     0.14300
C2613       C  0.70998548  0.32627404  0.80656556     0.36000
C2614       C  0.77830799  0.33189569  0.70094589     0.35900
N2615       N  0.69594790  0.32385386  0.82734446    -0.44400
N2616       N  0.79234417  0.33195526  0.67971191    -0.44400
C2617       C  0.76589113  0.34745568  0.93993287    -0.00800
C2618       C  0.76670489  0.36838299  0.92960931    -0.12600
C2619       C  0.77123787  0.38379847  0.95807139     0.01500
C2620       C  0.77536363  0.37883405  0.99909914    -0.00900
C2621       C  0.77417301  0.35794268  0.00987255    -0.12600
C2622       C  0.76963497  0.34242360  0.98114814     0.01400
H2623       H  0.76367988  0.37296128  0.89875724     0.14300
H2624       H  0.77703673  0.35361971  0.04093223     0.14300
C2625       C  0.76890337  0.32151970  0.99538811     0.36000
C2626       C  0.77079010  0.40468533  0.94368357     0.35900
N2627       N  0.76832054  0.30476641  0.00689568    -0.44400
N2628       N  0.77033971  0.42123831  0.93117582    -0.44400
C2629       C  0.75555329  0.27466504  0.89308338    -0.00800
C2630       C  0.77141674  0.26553685  0.91529025    -0.12600
C2631       C  0.77346324  0.24400308  0.91679284     0.01500
C2632       C  0.75925090  0.23114302  0.89642718    -0.00900
C2633       C  0.74285732  0.24031315  0.87619438    -0.12600
C2634       C  0.74091259  0.26164559  0.87422975     0.01400
H2635       H  0.78291449  0.27522525  0.92952830     0.14300
H2636       H  0.73166402  0.23070352  0.86081449     0.14300
C2637       C  0.72373174  0.26961513  0.85199365     0.36000
C2638       C  0.79117587  0.23557328  0.93644680     0.35900
N2639       N  0.70993378  0.27569869  0.83387865    -0.44400
N2640       N  0.80540833  0.22865306  0.95185274    -0.44400
C2641       C  0.58484855  0.47786284  0.70258499    -0.00800
C2642       C  0.57806980  0.48140392  0.74253234    -0.12600
C2643       C  0.58983754  0.47581342  0.77671899     0.01500
C2644       C  0.60878959  0.46584920  0.77186288    -0.00900
C2645       C  0.61526307  0.46205062  0.73187638    -0.12600
C2646       C  0.60380940  0.46794586  0.69792160     0.01400
H2647       H  0.56359335  0.48895922  0.74725098     0.14300
H2648       H  0.62982181  0.45474818  0.72665296     0.14300
C2649       C  0.61197503  0.46315246  0.65867417     0.36000
C2650       C  0.58200968  0.48054286  0.81622012     0.35900
N2651       N  0.61864798  0.45928180  0.62732931    -0.44400
N2652       N  0.57562830  0.48448932  0.84776472    -0.44400
C2653       C  0.57505899  0.50519189  0.47096104    -0.00800
C2654       C  0.57853132  0.48544199  0.48654679    -0.12600
C2655       C  0.57876378  0.48172780  0.52863245     0.01500
C2656       C  0.57518738  0.49785813  0.55609776    -0.00900
C2657       C  0.57308659  0.51777239  0.54039926    -0.12600
C2658       C  0.57314028  0.52151687  0.49853388     0.01400
H2659       H  0.57976322  0.47267184  0.46585410     0.14300
H2660       H  0.56996736  0.53029245  0.56087689     0.14300
C2661       C  0.56966330  0.54209599  0.48429087     0.36000
C2662       C  0.58098159  0.46096296  0.54284229     0.35900
N2663       N  0.56689987  0.55853986  0.47255257    -0.44400
N2664       N  0.58283352  0.44431135  0.55420915    -0.44400
C2665       C  0.61925155  0.53417860  0.26308180    -0.00800
C2666       C  0.62279095  0.53975502  0.30380273    -0.12600
C2667       C  0.60910539  0.53457174  0.33505599     0.01500
C2668       C  0.59091672  0.52340904  0.32683667    -0.00900
C2669       C  0.58680726  0.51842762  0.28615966    -0.12600
C2670       C  0.60063670  0.52355170  0.25465513     0.01400
H2671       H  0.63658217  0.54819109  0.31186015     0.14300
H2672       H  0.57281688  0.51011863  0.27889654     0.14300
C2673       C  0.59520446  0.51742547  0.21427090     0.36000
C2674       C  0.61386397  0.54171691  0.37522113     0.35900
N2675       N  0.59052339  0.51240680  0.18208267    -0.44400
N2676       N  0.61756487  0.54749990  0.40741654    -0.44400
C2677       C  0.47285116  0.49590044  0.64125875    -0.00800
C2678       C  0.48259072  0.48252792  0.66835807    -0.12600
C2679       C  0.50409340  0.48161335  0.67060985     0.01500
C2680       C  0.51629071  0.49432362  0.64545479    -0.00900
C2681       C  0.50647999  0.50842686  0.62016346    -0.12600
C2682       C  0.48517093  0.50938525  0.61788301     0.01400
H2683       H  0.47342285  0.47212855  0.68662054     0.14300
H2684       H  0.51556426  0.51865001  0.60132865     0.14300
C2685       C  0.47653944  0.52456059  0.59124705     0.36000
C2686       C  0.51311819  0.46667956  0.69714690     0.35900
N2687       N  0.46973794  0.53672207  0.56980371    -0.44400
N2688       N  0.52039591  0.45472476  0.71842063    -0.44400
C2689       C  0.41655468  0.51161001  0.46512840    -0.00800
C2690       C  0.41542459  0.52740113  0.49385631    -0.12600
C2691       C  0.41462804  0.52307526  0.53569995     0.01500
C2692       C  0.41467721  0.50257891  0.54997541    -0.00900
C2693       C  0.41436762  0.48682744  0.52108432    -0.12600
C2694       C  0.41540473  0.49113710  0.47933476     0.01400
H2695       H  0.41678110  0.54318429  0.48383058     0.14300
H2696       H  0.41503893  0.47104042  0.53122094     0.14300
C2697       C  0.41678389  0.47417918  0.45164284     0.36000
C2698       C  0.41536063  0.53999760  0.56364817     0.35900
N2699       N  0.41795590  0.46054767  0.42952422    -0.44400
N2700       N  0.41594954  0.55360441  0.58597482    -0.44400
C2701       C  0.47521972  0.51277902  0.37334211    -0.00800
C2702       C  0.48696294  0.52592636  0.34848536    -0.12600
C2703       C  0.50859893  0.52528545  0.34845184     0.01500
C2704       C  0.51895590  0.51131253  0.37385221    -0.00900
C2705       C  0.50710913  0.49729801  0.39630377    -0.12600
C2706       C  0.48568554  0.49775075  0.39604065     0.01400
H2707       H  0.47930543  0.53742595  0.33053439     0.14300
H2708       H  0.51468009  0.48602369  0.41499159     0.14300
C2709       C  0.47495319  0.48243081  0.41963522     0.36000
C2710       C  0.51966878  0.53989699  0.32381265     0.35900
N2711       N  0.46656892  0.47006246  0.43867703    -0.44400
N2712       N  0.52844935  0.55159852  0.30383743    -0.44400
C2713       C  0.89807922  0.47203378  0.83256036    -0.00800
C2714       C  0.87713612  0.47152649  0.84214371    -0.12600
C2715       C  0.86188124  0.46828845  0.81288145     0.01500
C2716       C  0.86703272  0.46478036  0.77171744    -0.00900
C2717       C  0.88795987  0.46577998  0.76160149    -0.12600
C2718       C  0.90331960  0.46949186  0.79114286     0.01400
H2719       H  0.87238569  0.47385233  0.87309492     0.14300
H2720       H  0.89240559  0.46372915  0.73039589     0.14300
C2721       C  0.92418246  0.47130447  0.77736629     0.36000
C2722       C  0.84099372  0.46970864  0.82673610     0.35900
N2723       N  0.94083513  0.47293818  0.76587441    -0.44400
N2724       N  0.82446410  0.47101965  0.83883627    -0.44400
C2725       C  0.91452373  0.49338069  0.06346055    -0.00800
C2726       C  0.90862356  0.50849491  0.03560657    -0.12600
C2727       C  0.90817204  0.50443471  0.99374259     0.01500
C2728       C  0.91339856  0.48487203  0.97904006    -0.00900
C2729       C  0.91775101  0.46939840  0.00719755    -0.12600
C2730       C  0.91839462  0.47346420  0.04882953     0.01400
H2731       H  0.90605575  0.52396165  0.04620125     0.14300
H2732       H  0.92205602  0.45437083  0.99641117     0.14300
C2733       C  0.92422989  0.45717899  0.07587474     0.36000
C2734       C  0.90435216  0.52110690  0.96626606     0.35900
N2735       N  0.92883679  0.44406311  0.09745295    -0.44400
N2736       N  0.90138016  0.53451493  0.94423857    -0.44400
C2737       C  0.90238526  0.51715664  0.20588858    -0.00800
C2738       C  0.90807745  0.51255464  0.24595152    -0.12600
C2739       C  0.89579567  0.51794128  0.27933374     0.01500
C2740       C  0.87748864  0.52900453  0.27353488    -0.00900
C2741       C  0.87196382  0.53359695  0.23325015    -0.12600
C2742       C  0.88387199  0.52770200  0.19999316     0.01400
H2743       H  0.92211687  0.50429200  0.25129330     0.14300
H2744       H  0.85788319  0.54162514  0.22720608     0.14300
C2745       C  0.87677295  0.53329073  0.16027451     0.36000
C2746       C  0.90251361  0.51162480  0.31880180     0.35900
N2747       N  0.87081013  0.53787968  0.12869623    -0.44400
N2748       N  0.90827741  0.50615520  0.34996529    -0.44400
C2749       C  0.01379588  0.47679489  0.88417405    -0.00800
C2750       C  0.00382349  0.46939323  0.91875240    -0.12600
C2751       C  0.98254106  0.46755425  0.92069249     0.01500
C2752       C  0.97022686  0.47367992  0.88759609    -0.00900
C2753       C  0.98018509  0.47975751  0.85177827    -0.12600
C2754       C  0.00178091  0.48117634  0.84970137     0.01400
H2755       H  0.01277715  0.46513764  0.94497044     0.14300
H2756       H  0.97112456  0.48427285  0.82594245     0.14300
C2757       C  0.01103863  0.48802494  0.81251870     0.36000
C2758       C  0.97398802  0.45930098  0.95758382     0.35900
N2759       N  0.01832541  0.49339247  0.78245816    -0.44400
N2760       N  0.96735853  0.45275928  0.98735073    -0.44400
C2761       C  0.07198929  0.49484776  0.97058798    -0.00800
C2762       C  0.07130134  0.51560036  0.98207847    -0.12600
C2763       C  0.07199345  0.52154987  0.02310810     0.01500
C2764       C  0.07333221  0.50669404  0.05409634    -0.00900
C2765       C  0.07521049  0.48603231  0.04244373    -0.12600
C2766       C  0.07461630  0.48009486  0.00140279     0.01400
H2767       H  0.06878454  0.52713233  0.95908996     0.14300
H2768       H  0.07562162  0.47429909  0.06561264     0.14300
C2769       C  0.07502023  0.45855696  0.99165933     0.36000
C2770       C  0.06938094  0.54288758  0.03293413     0.35900
N2771       N  0.07531228  0.44132269  0.98353176    -0.44400
N2772       N  0.06723495  0.55998266  0.04091589    -0.44400
C2773       C  0.01620013  0.50903435  0.14870140    -0.00800
C2774       C  0.00500864  0.52326730  0.17130355    -0.12600
C2775       C  0.98348141  0.52204513  0.17350922     0.01500
C2776       C  0.97271903  0.50637284  0.15256505    -0.00900
C2777       C  0.98408306  0.49146389  0.13222308    -0.12600
C2778       C  0.00546915  0.49254047  0.13035556     0.01400
H2779       H  0.01300440  0.53590278  0.18586221     0.14300
H2780       H  0.97615292  0.47901420  0.11689184     0.14300
C2781       C  0.01596906  0.47635936  0.10943750     0.36000
C2782       C  0.97291147  0.53768230  0.19570511     0.35900
N2783       N  0.02435001  0.46337314  0.09271286    -0.44400
N2784       N  0.96458071  0.55022281  0.21379081    -0.44400
C2785       C  0.24432462  0.68010515  0.22078808    -0.00800
C2786       C  0.26370047  0.68728288  0.23336504    -0.12600
C2787       C  0.26924064  0.68824092  0.27446499     0.01500
C2788       C  0.25553510  0.68148246  0.30490888    -0.00900
C2789       C  0.23662720  0.67296613  0.29226681    -0.12600
C2790       C  0.23093560  0.67237233  0.25087578     0.01400
H2791       H  0.27402720  0.69379205  0.21103946     0.14300
H2792       H  0.22555588  0.66834176  0.31493979     0.14300
C2793       C  0.21047495  0.66578440  0.24040161     0.36000
C2794       C  0.28851782  0.69796016  0.28466790     0.35900
N2795       N  0.19402904  0.66059642  0.23196380    -0.44400
N2796       N  0.30395728  0.70592426  0.29229045    -0.44400
C2797       C  0.22735728  0.78084318  0.13284903    -0.00800
C2798       C  0.23839633  0.77040866  0.10309900    -0.12600
C2799       C  0.23941292  0.74886993  0.10318699     0.01500
C2800       C  0.22856876  0.73737645  0.13248610    -0.00900
C2801       C  0.21706380  0.74784743  0.16146013    -0.12600
C2802       C  0.21643629  0.76930453  0.16201345     0.01400
H2803       H  0.24727164  0.77913346  0.08126671     0.14300
H2804       H  0.20881098  0.73918737  0.18432531     0.14300
C2805       C  0.20445128  0.77911830  0.19289541     0.36000
C2806       C  0.25338977  0.73917658  0.07578529     0.35900
N2807       N  0.19487771  0.78701125  0.21761848    -0.44400
N2808       N  0.26496847  0.73164150  0.05419568    -0.44400
C2809       C  0.24056921  0.84071944  0.21695541    -0.00800
C2810       C  0.22480244  0.84040358  0.24572057    -0.12600
C2811       C  0.22909720  0.84048171  0.28733289     0.01500
C2812       C  0.24952590  0.84104947  0.30128251    -0.00900
C2813       C  0.26528969  0.84292698  0.27261005    -0.12600
C2814       C  0.26098824  0.84260562  0.23082515     0.01400
H2815       H  0.20910807  0.83838203  0.23568629     0.14300
H2816       H  0.28106639  0.84283021  0.28274557     0.14300
C2817       C  0.27785549  0.84207510  0.20281062     0.36000
C2818       C  0.21232298  0.83826744  0.31533696     0.35900
N2819       N  0.29138599  0.84150757  0.18038007    -0.44400
N2820       N  0.19895888  0.83643079  0.33795912    -0.44400
C2821       C  0.25563163  0.73955090  0.39797212    -0.00800
C2822       C  0.24238871  0.74954195  0.37123273    -0.12600
C2823       C  0.24142146  0.77093815  0.36926215     0.01500
C2824       C  0.25387975  0.78331445  0.39482102    -0.00900
C2825       C  0.26599265  0.77334911  0.42388399    -0.12600
C2826       C  0.26701820  0.75171976  0.42556914     0.01400
H2827       H  0.23309024  0.74053567  0.35053404     0.14300
H2828       H  0.27555617  0.78243997  0.44391868     0.14300
C2829       C  0.28087677  0.74255544  0.45405951     0.36000
C2830       C  0.22774445  0.77954351  0.33961811     0.35900
N2831       N  0.29198754  0.73516144  0.47687691    -0.44400
N2832       N  0.21694323  0.78627504  0.31544482    -0.44400
C2833       C  0.20467091  0.63837817  0.01508706    -0.00800
C2834       C  0.21068265  0.65865840  0.00592000    -0.12600
C2835       C  0.21726311  0.67267058  0.03628637     0.01500
C2836       C  0.21842393  0.66670920  0.07773865    -0.00900
C2837       C  0.21248718  0.64652107  0.08680223    -0.12600
C2838       C  0.20578334  0.63259594  0.05688898     0.01400
H2839       H  0.21046373  0.66362448  0.97471370     0.14300
H2840       H  0.21308304  0.64140556  0.11791686     0.14300
C2841       C  0.20107769  0.61214905  0.07120974     0.36000
C2842       C  0.22317402  0.69297496  0.02326932     0.35900
N2843       N  0.19751623  0.59590670  0.08361472    -0.44400
N2844       N  0.22777216  0.70925026  0.01243280    -0.44400
C2845       C  0.38005209  0.54772748  0.25635248    -0.00800
C2846       C  0.39261644  0.53047039  0.25166940    -0.12600
C2847       C  0.40589352  0.52380540  0.28277828     0.01500
C2848       C  0.40684357  0.53417424  0.32033702    -0.00900
C2849       C  0.39501036  0.55190008  0.32446716    -0.12600
C2850       C  0.38210059  0.55885400  0.29306979     0.01400
H2851       H  0.39126380  0.52139953  0.22441390     0.14300
H2852       H  0.39593487  0.56049410  0.35238316     0.14300
C2853       C  0.37138142  0.57779049  0.29925988     0.36000
C2854       C  0.41745963  0.50542048  0.27623154     0.35900
N2855       N  0.36307312  0.59312054  0.30442419    -0.44400
N2856       N  0.42671019  0.49066127  0.27094988    -0.44400
C2857       C  0.08412527  0.47252061  0.82649742    -0.00800
C2858       C  0.07867547  0.47691141  0.78614056    -0.12600
C2859       C  0.09165004  0.47217044  0.75312368     0.01500
C2860       C  0.11046142  0.46196206  0.75944440    -0.00900
C2861       C  0.11507815  0.45658511  0.79995408    -0.12600
C2862       C  0.10260718  0.46202629  0.83280021     0.01400
H2863       H  0.06446029  0.48478839  0.78036189     0.14300
H2864       H  0.12911505  0.44861043  0.80672854     0.14300
C2865       C  0.10928338  0.45647472  0.87284598     0.36000
C2866       C  0.08540132  0.47873940  0.71356338     0.35900
N2867       N  0.11471197  0.45216879  0.90495460    -0.44400
N2868       N  0.08000078  0.48424845  0.68218751    -0.44400
C2869       C  0.40364827  0.48014760  0.69558363    -0.00800
C2870       C  0.40909457  0.48567439  0.73549133    -0.12600
C2871       C  0.39735580  0.47940512  0.76948942     0.01500
C2872       C  0.37957271  0.46697043  0.76465318    -0.00900
C2873       C  0.37493634  0.46065538  0.72457292    -0.12600
C2874       C  0.38646368  0.46709838  0.69078274     0.01400
H2875       H  0.42252041  0.49529908  0.74024384     0.14300
H2876       H  0.36174293  0.45084631  0.71896352     0.14300
C2877       C  0.38061246  0.45940871  0.65156119     0.36000
C2878       C  0.40404309  0.48612058  0.80875148     0.35900
N2879       N  0.37597521  0.45314550  0.62017915    -0.44400
N2880       N  0.40975960  0.49149651  0.84006424    -0.44400
C2881       C  0.10974321  0.54589738  0.26544323    -0.00800
C2882       C  0.11679072  0.54671873  0.22502786    -0.12600
C2883       C  0.10479729  0.54018538  0.19194345     0.01500
C2884       C  0.08485616  0.53201742  0.19787568    -0.00900
C2885       C  0.07743790  0.53180432  0.23812901    -0.12600
C2886       C  0.08948837  0.53857438  0.27135910     0.01400
H2887       H  0.13216524  0.55224053  0.21875937     0.14300
H2888       H  0.06210159  0.52606366  0.24403385     0.14300
C2889       C  0.08044807  0.53817234  0.31098984     0.36000
C2890       C  0.11344681  0.54276713  0.15220174     0.35900
N2891       N  0.07302437  0.53798220  0.34264886    -0.44400
N2892       N  0.12054084  0.54514697  0.12055347    -0.44400
C2893       C  0.28335342  0.64390808  0.51966397    -0.00800
C2894       C  0.26710562  0.65778596  0.52352277    -0.12600
C2895       C  0.26141273  0.67099840  0.49142836     0.01500
C2896       C  0.27147868  0.67019717  0.45345497    -0.00900
C2897       C  0.28827321  0.65708836  0.45026813    -0.12600
C2898       C  0.29451906  0.64457260  0.48279387     0.01400
H2899       H  0.25817781  0.65771114  0.55105610     0.14300
H2900       H  0.29687535  0.65688337  0.42233227     0.14300
C2901       C  0.31293561  0.63288807  0.47768085     0.36000
C2902       C  0.24452609  0.68463744  0.49786958     0.35900
N2903       N  0.32785834  0.62377025  0.47358382    -0.44400
N2904       N  0.23104267  0.69561163  0.50336190    -0.44400
C2905       C  0.27943297  0.88255907  0.51020324    -0.00800
C2906       C  0.28655398  0.88557507  0.47026929    -0.12600
C2907       C  0.28162958  0.87205880  0.43853208     0.01500
C2908       C  0.26934648  0.85442141  0.44549919    -0.00900
C2909       C  0.26282956  0.85075238  0.48549157    -0.12600
C2910       C  0.26752513  0.86453677  0.51741420     0.01400
H2911       H  0.29596599  0.89889539  0.46321222     0.14300
H2912       H  0.25347416  0.83728289  0.49175240     0.14300
C2913       C  0.25923639  0.85989436  0.55668222     0.36000
C2914       C  0.28995260  0.87654844  0.39911789     0.35900
N2915       N  0.25235530  0.85578173  0.58783536    -0.44400
N2916       N  0.29662140  0.88012114  0.36752920    -0.44400
C2917       C  0.10677559  0.97511939  0.28811700    -0.00800
C2918       C  0.10495334  0.99528787  0.27347245    -0.12600
C2919       C  0.09425414  0.99948492  0.23746150     0.01500
C2920       C  0.08442907  0.98346818  0.21604294    -0.00900
C2921       C  0.08539844  0.96347650  0.23172252    -0.12600
C2922       C  0.09687121  0.95914416  0.26658076     0.01400
H2923       H  0.11306547  0.00764057  0.28868754     0.14300
H2924       H  0.07777421  0.95104598  0.21577612     0.14300
C2925       C  0.09905216  0.93802787  0.27875354     0.36000
C2926       C  0.09386808  0.02027865  0.22265786     0.35900
N2927       N  0.10099927  0.92110712  0.28836662    -0.44400
N2928       N  0.09366478  0.03692575  0.21059785    -0.44400
C2929       C  0.40847686  0.01648899  0.71412235    -0.00800
C2930       C  0.40838003  0.03700977  0.72694683    -0.12600
C2931       C  0.39745107  0.04297211  0.76155737     0.01500
C2932       C  0.38686963  0.02822921  0.78525943    -0.00900
C2933       C  0.38794937  0.00751412  0.77360288    -0.12600
C2934       C  0.39841367  0.00163861  0.73828506     0.01400
H2935       H  0.41648237  0.04851508  0.70930142     0.14300
H2936       H  0.37961533  0.99599928  0.79079485     0.14300
C2937       C  0.39846434  0.98028487  0.72703400     0.36000
C2938       C  0.39689880  0.06444170  0.77190752     0.35900
N2939       N  0.39855419  0.96319562  0.71776837    -0.44400
N2940       N  0.39623817  0.08160471  0.78048323    -0.44400
C2941       C  0.09658061  0.03289256  0.84405055    -0.00800
C2942       C  0.09017174  0.03434609  0.80338474    -0.12600
C2943       C  0.10396949  0.03887864  0.77161633     0.01500
C2944       C  0.12510955  0.04196744  0.77954482    -0.00900
C2945       C  0.13144210  0.04070622  0.82016279    -0.12600
C2946       C  0.11770552  0.03652906  0.85193262     0.01400
H2947       H  0.07415761  0.03196560  0.79604197     0.14300
H2948       H  0.14747814  0.04297974  0.82753075     0.14300
C2949       C  0.12611786  0.03678303  0.89220946     0.36000
C2950       C  0.09569147  0.04077198  0.73147135     0.35900
N2951       N  0.13328833  0.03732654  0.92412420    -0.44400
N2952       N  0.08872730  0.04232830  0.69953539    -0.44400
C2953       C  0.20971235  0.87084032  0.99919898    -0.00800
C2954       C  0.23006818  0.86450339  0.00457579    -0.12600
C2955       C  0.23618899  0.85384455  0.03963996     0.01500
C2956       C  0.22195422  0.84935617  0.07057928    -0.00900
C2957       C  0.20153717  0.85503868  0.06475142    -0.12600
C2958       C  0.19532942  0.86553407  0.02973618     0.01400
H2959       H  0.24145913  0.86861794  0.98214624     0.14300
H2960       H  0.19028011  0.85101940  0.08753082     0.14300
C2961       C  0.17391921  0.87039369  0.02573630     0.36000
C2962       C  0.25727590  0.84790153  0.04350433     0.35900
N2963       N  0.15676706  0.87427431  0.02247570    -0.44400
N2964       N  0.27420435  0.84314750  0.04650259    -0.44400
C2965       C  0.39773559  0.97569218  0.33514397    -0.00800
C2966       C  0.38399774  0.95911757  0.33923357    -0.12600
C2967       C  0.37018500  0.95355604  0.30822126     0.01500
C2968       C  0.36904252  0.96510111  0.27184288    -0.00900
C2969       C  0.38332237  0.98133278  0.26715372    -0.12600
C2970       C  0.39761789  0.98650363  0.29793812     0.01400
H2971       H  0.38429925  0.95012666  0.36676275     0.14300
H2972       H  0.38287003  0.99053261  0.23992368     0.14300
C2973       C  0.41134018  0.00363893  0.29115420     0.36000
C2974       C  0.35801434  0.93522188  0.31430841     0.35900
N2975       N  0.42223029  0.01743606  0.28525038    -0.44400
N2976       N  0.34873316  0.92027073  0.31986309    -0.44400
C2977       C  0.26427994  0.16705249  0.56592431    -0.00800
C2978       C  0.28469727  0.16581635  0.55289503    -0.12600
C2979       C  0.29015916  0.15373377  0.51943439     0.01500
C2980       C  0.27499240  0.14324873  0.49667621    -0.00900
C2981       C  0.25443556  0.14527345  0.50862953    -0.12600
C2982       C  0.24904392  0.15679402  0.54301395     0.01400
H2983       H  0.29656089  0.17379661  0.56978839     0.14300
H2984       H  0.24259868  0.13701844  0.49219160     0.14300
C2985       C  0.22773639  0.15797962  0.55398643     0.36000
C2986       C  0.31155249  0.15197074  0.50952587     0.35900
N2987       N  0.21061931  0.15891047  0.56258345    -0.44400
N2988       N  0.32872444  0.15048665  0.50176308    -0.44400
C2989       C  0.23018318  0.17624201  0.79289176    -0.00800
C2990       C  0.21636856  0.18450307  0.76493576    -0.12600
C2991       C  0.22033767  0.18412456  0.72326364     0.01500
C2992       C  0.23869845  0.17577467  0.70838439    -0.00900
C2993       C  0.25171388  0.16594947  0.73596532    -0.12600
C2994       C  0.24757795  0.16607107  0.77785545     0.01400
H2995       H  0.20289792  0.19227954  0.77586771     0.14300
H2996       H  0.26608795  0.15987508  0.72529621     0.14300
C2997       C  0.26251942  0.15759167  0.80498195     0.36000
C2998       C  0.20589124  0.19357921  0.69625005     0.35900
N2999       N  0.27460666  0.15081859  0.82657513    -0.44400
N3000       N  0.19427478  0.20101157  0.67449592    -0.44400
C3001       C  0.21084633  0.12948026  0.00352819    -0.00800
C3002       C  0.21665901  0.12302062  0.96467413    -0.12600
C3003       C  0.22062202  0.13687232  0.93301862     0.01500
C3004       C  0.21875083  0.15833311  0.93901093    -0.00900
C3005       C  0.21305318  0.16486958  0.97811137    -0.12600
C3006       C  0.20919552  0.15082563  0.00999471     0.01400
H3007       H  0.21848047  0.10678628  0.95885241     0.14300
H3008       H  0.21139817  0.18110140  0.98394785     0.14300
C3009       C  0.20295348  0.15880173  0.04853890     0.36000
C3010       C  0.22692904  0.12815568  0.89507464     0.35900
N3011       N  0.19792107  0.16537534  0.07930973    -0.44400
N3012       N  0.23194202  0.12083708  0.86494825    -0.44400
C3013       C  0.29085018  0.37231582  0.50904569    -0.00800
C3014       C  0.27335219  0.35962091  0.50559847    -0.12600
C3015       C  0.26602573  0.34775630  0.53848997     0.01500
C3016       C  0.27585066  0.34858913  0.57669486    -0.00900
C3017       C  0.29377482  0.36058574  0.57978067    -0.12600
C3018       C  0.30140943  0.37202916  0.54664609     0.01400
H3019       H  0.26464643  0.35978186  0.47774970     0.14300
H3020       H  0.30209396  0.36076757  0.60808725     0.14300
C3021       C  0.32032534  0.38336323  0.55204959     0.36000
C3022       C  0.24772835  0.33553847  0.53254379     0.35900
N3023       N  0.33552678  0.39239983  0.55619899    -0.44400
N3024       N  0.23304112  0.32582452  0.52723869    -0.44400
C3025       C  0.26453488  0.27876792  0.63332140    -0.00800
C3026       C  0.26673427  0.26754202  0.66924571    -0.12600
C3027       C  0.26646823  0.24615222  0.66962821     0.01500
C3028       C  0.26350440  0.23507468  0.63333128    -0.00900
C3029       C  0.26257578  0.24614700  0.59694819    -0.12600
C3030       C  0.26309093  0.26776331  0.59657801     0.01400
H3031       H  0.26874634  0.27552295  0.69767399     0.14300
H3032       H  0.26052112  0.23794368  0.56879854     0.14300
C3033       C  0.26106471  0.27795358  0.55820131     0.36000
C3034       C  0.26975631  0.23615941  0.70800545     0.35900
N3035       N  0.25944064  0.28571290  0.52698840    -0.44400
N3036       N  0.27245775  0.22827306  0.73880795    -0.44400
C3037       C  0.23770147  0.33455554  0.80361830    -0.00800
C3038       C  0.25741162  0.34157909  0.79262046    -0.12600
C3039       C  0.26358783  0.34271595  0.75160030     0.01500
C3040       C  0.24998372  0.33683276  0.72026220    -0.00900
C3041       C  0.22986870  0.33119449  0.73142595    -0.12600
C3042       C  0.22372190  0.33007465  0.77221056     0.01400
H3043       H  0.26854434  0.34466577  0.81616438     0.14300
H3044       H  0.21925100  0.32618095  0.70819274     0.14300
C3045       C  0.20325700  0.32291986  0.78142170     0.36000
C3046       C  0.28455696  0.34810211  0.74269491     0.35900
N3047       N  0.18688729  0.31723236  0.78918683    -0.44400
N3048       N  0.30140522  0.35243326  0.73571254    -0.44400
C3049       C  0.21818347  0.34474671  0.94991617    -0.00800
C3050       C  0.22452251  0.34021604  0.98971224    -0.12600
C3051       C  0.21968793  0.35305063  0.02292066     0.01500
C3052       C  0.20798183  0.37101316  0.01724985    -0.00900
C3053       C  0.20048539  0.37448532  0.97765001    -0.12600
C3054       C  0.20553265  0.36192784  0.94465136     0.01400
H3055       H  0.23379905  0.32680280  0.99485711     0.14300
H3056       H  0.19098095  0.38764734  0.97171633     0.14300
C3057       C  0.19716624  0.36697774  0.90560166     0.36000
C3058       C  0.22717435  0.34732521  0.06215145     0.35900
N3059       N  0.19051032  0.37098393  0.87425316    -0.44400
N3060       N  0.23314818  0.34225620  0.09341084    -0.44400
C3061       C  0.23168670  0.27501645  0.89349054    -0.00800
C3062       C  0.21801507  0.26427168  0.91907314    -0.12600
C3063       C  0.21679864  0.24257141  0.91881811     0.01500
C3064       C  0.22948117  0.23121248  0.89273533    -0.00900
C3065       C  0.24404088  0.24197027  0.86957317    -0.12600
C3066       C  0.24530074  0.26339732  0.86970680     0.01400
H3067       H  0.20752997  0.27281105  0.93774563     0.14300
H3068       H  0.25426804  0.23353075  0.85012117     0.14300
C3069       C  0.26075380  0.27292380  0.84452445     0.36000
C3070       C  0.20151502  0.23245665  0.94338606     0.35900
N3071       N  0.27309560  0.28044107  0.82412206    -0.44400
N3072       N  0.18925426  0.22428503  0.96300859    -0.44400
loop_ 
_geom_bond_atom_site_label_1 
_geom_bond_atom_site_label_2 
_geom_bond_distance 
_geom_bond_site_symmetry_2 
_ccdc_geom_bond_type 
C1            N2   1.379       .  A
C1            N6   1.370       .  A
C1         C3049   1.519       .  S
N2            C3   1.371       .  A
C3            N4   1.355       .  A
C3         C3037   1.508       .  S
N4            C5   1.359       .  A
C5            N6   1.366       .  A
C5         C3061   1.504       .  S
C7            N8   1.383       .  A
C7           N12   1.365       .  A
C7         C3016   1.513       .  S
N8            C9   1.378       .  A
C9           N10   1.353       .  A
C9         C3040   1.512       .  S
N10          C11   1.356       .  A
C11          N12   1.360       .  A
C11        C3025   1.497       .  S
C13          N14   1.374       .  A
C13          N18   1.373       .  A
C13        C3004   1.523       .  S
N14          C15   1.365       .  A
C15          N16   1.354       .  A
C15        C2989   1.499       .  S
N16          C17   1.358       .  A
C17          N18   1.368       .  A
C17        C3064   1.500       .  S
C19          N20   1.367       .  A
C19          N24   1.376       .  A
C19        C2977   1.501       .  S
N20          C21   1.362       .  A
C21          N22   1.352       .  A
C21        C3028   1.495       .  S
N22          C23   1.351       .  A
C23          N24   1.370       .  A
C23        C2992   1.496       .  S
Zr25         O26   2.433       .  S
Zr25         O27   2.482       .  S
Zr25         O28   2.451       .  S
Zr25         O31   2.584       .  S
Zr25         O33   2.426       .  S
Zr25         O34   2.403       .  S
Zr25         O35   2.471       .  S
Zr25         O36   2.408       .  S
O26          H82   0.991       .  S
O26          H90   0.990       .  S
O27          C47   1.288   1_565  A
O28          C49   1.292       .  A
O29         Zr39   2.366       .  S
O29          C48   1.260       .  A
O30         Zr38   2.547       .  S
O30          C49   1.311       .  A
O31          C48   1.315       .  A
O32         Zr40   2.362       .  S
O32          C47   1.252       .  A
O33         Zr38   2.408       .  S
O33         Zr40   2.296   1_565  S
O34         Zr39   2.375       .  S
O34         Zr40   2.430   1_565  S
O34          H69   0.964       .  S
O35         Zr38   2.456       .  S
O35         Zr55   2.428       .  S
O35          H72   0.965       .  S
O36         Zr39   2.358       .  S
O36         Zr55   2.427       .  S
Zr37         O62   2.437       .  S
Zr37         O56   2.482       .  S
Zr37         O64   2.437   1_565  S
Zr37         O52   2.459       .  S
Zr37         O44   2.387       .  S
Zr37         O45   2.372       .  S
Zr37         O46   2.414       .  S
Zr37         O43   2.280       .  S
Zr38         O57   2.433       .  S
Zr38         O50   2.434       .  S
Zr38         O51   2.598       .  S
Zr38         O44   2.416       .  S
Zr38         O45   2.425       .  S
Zr39         O41   2.455       .  S
Zr39         O63   2.450       .  S
Zr39         O65   2.313       .  S
Zr39         O46   2.307       .  S
Zr39         O43   2.315       .  S
Zr40         O66   2.414       .  S
Zr40         O67   2.434       .  S
Zr40         O42   2.463       .  S
Zr40         O44   2.342   1_545  S
Zr40         O43   2.321   1_545  S
O41          H78   0.992       .  S
O42          H73   0.990       .  S
O42          H87   0.991       .  S
O44          H70   0.964   1_565  S
O45         Zr55   2.409       .  S
O46         Zr55   2.381       .  S
O46          H71   0.955       .  S
C47         C259   1.463       .  S
C48         C444   1.518       .  S
C49        C2968   1.523       .  S
O50          H86   0.990       .  S
O51          C53   1.308       .  A
O52          C53   1.279       .  A
C53         C317   1.551   1_565  S
O54         Zr55   2.435       .  S
O54          H83   0.991       .  S
Zr55         O58   2.434       .  S
Zr55         O59   2.436       .  S
Zr55         O60   2.475       .  S
O56          C61   1.297       .  A
O57          H74   0.990       .  S
O57          H89   0.990       .  S
O58          H75   0.990       .  S
O59          H79   0.990       .  S
O59          H88   0.990       .  S
O60          C61   1.290       .  A
C61         C113   1.475       .  S
O62          H81   0.984   1_565  S
O62          H85   0.986   1_565  S
O63          H77   0.991       .  S
O63          H84   0.979       .  S
O64          C68   1.257       .  A
O65          C68   1.248   1_565  A
O66          H76   0.990       .  S
O67          H80   0.990       .  S
C68         C398   1.445       .  S
Zr91         O92   2.436   1_556  S
Zr91         O93   2.486   1_556  S
Zr91         O94   2.433       .  S
Zr91         O97   2.595   1_556  S
Zr91         O99   2.428       .  S
Zr91        O100   2.391       .  S
Zr91        O101   2.480       .  S
Zr91        O102   2.381       .  S
O92         H148   0.991       .  S
O92         H156   0.989   1_554  S
O93         C113   1.286       .  A
O94         C115   1.285       .  A
O95        Zr105   2.355       .  S
O95         C114   1.254       .  A
O96        Zr104   2.546       .  S
O96         C115   1.311       .  A
O97         C114   1.315   1_554  A
O98        Zr106   2.383       .  S
O98         C113   1.256   1_556  A
O99        Zr104   2.411       .  S
O99        Zr106   2.300       .  S
O100       Zr105   2.389       .  S
O100       Zr106   2.432       .  S
O100        H135   0.964       .  S
O101       Zr104   2.460       .  S
O101       Zr121   2.397       .  S
O101        H138   0.960       .  S
O102       Zr105   2.398       .  S
O102       Zr121   2.435       .  S
Zr103       O128   2.430       .  S
Zr103       O122   2.435       .  S
Zr103       O130   2.387       .  S
Zr103       O118   2.406       .  S
Zr103       O110   2.406       .  S
Zr103       O111   2.392       .  S
Zr103       O112   2.431       .  S
Zr103       O109   2.297       .  S
Zr104       O123   2.436       .  S
Zr104       O116   2.435       .  S
Zr104       O117   2.673       .  S
Zr104       O110   2.363       .  S
Zr104       O111   2.384       .  S
Zr105       O107   2.451   1_565  S
Zr105       O129   2.427   1_565  S
Zr105       O131   2.354   1_565  S
Zr105       O112   2.299       .  S
Zr105       O109   2.312       .  S
Zr106       O132   2.443       .  S
Zr106       O133   2.405       .  S
Zr106       O108   2.456       .  S
Zr106       O110   2.364       .  S
Zr106       O109   2.299       .  S
O107        H144   0.990       .  S
O108        H139   0.990       .  S
O108        H153   0.991       .  S
O110        H136   0.960       .  S
O111       Zr121   2.382       .  S
O112       Zr121   2.327       .  S
O112        H137   0.970       .  S
C114        C378   1.519   1_566  S
C115       C2953   1.508       .  S
O116        H152   0.990       .  S
O117        C119   1.328       .  A
O118        C119   1.277       .  A
C119        C515   1.561       .  S
O120       Zr121   2.435       .  S
O120        H149   0.991       .  S
Zr121       O124   2.434       .  S
Zr121       O125   2.437       .  S
Zr121       O126   2.502       .  S
O122        C127   1.287       .  A
O123        H140   0.989       .  S
O123        H155   0.991       .  S
O124        H141   0.990       .  S
O125        H145   0.991       .  S
O125        H154   0.989       .  S
O126        C127   1.299       .  A
C127        C179   1.464   1_565  S
O128        H147   0.980       .  S
O128        H151   0.985       .  S
O129        H143   0.981       .  S
O129        H150   0.982   1_545  S
O130        C134   1.259   1_565  A
O131        C134   1.235       .  A
O132        H142   0.992       .  S
O133        H146   0.987       .  S
C134        C332   1.421       .  S
Zr157       O158   2.443       .  S
Zr157       O159   2.509       .  S
Zr157       O160   2.464       .  S
Zr157       O163   2.679       .  S
Zr157       O165   2.438       .  S
Zr157       O166   2.361       .  S
Zr157       O167   2.504       .  S
Zr157       O168   2.349       .  S
O158        H214   0.991       .  S
O158        H222   0.990       .  S
O159        C179   1.293       .  A
O160        C181   1.296       .  A
O161       Zr171   2.267       .  S
O161        C180   1.248       .  A
O162       Zr170   2.516       .  S
O162        C181   1.304       .  A
O163        C180   1.336       .  A
O164       Zr172   2.349       .  S
O164        C179   1.248       .  A
O165       Zr170   2.421       .  S
O165       Zr172   2.304       .  S
O166       Zr171   2.399       .  S
O166       Zr172   2.431       .  S
O166        H201   0.961       .  S
O167       Zr170   2.457       .  S
O167       Zr187   2.445       .  S
O167        H204   0.973       .  S
O168       Zr171   2.231       .  S
O168       Zr187   2.350       .  S
Zr169       O194   2.445       .  S
Zr169       O188   2.424       .  S
Zr169       O196   2.453       .  S
Zr169       O184   2.471       .  S
Zr169       O175   2.313       .  S
Zr169       O176   2.373       .  S
Zr169       O177   2.379       .  S
Zr169       O178   2.401       .  S
Zr170       O189   2.434       .  S
Zr170       O182   2.434       .  S
Zr170       O183   2.589       .  S
Zr170       O176   2.416       .  S
Zr170       O177   2.415       .  S
Zr171       O173   2.435       .  S
Zr171       O195   2.450       .  S
Zr171       O197   2.285       .  S
Zr171       O175   2.393       .  S
Zr171       O178   2.263       .  S
Zr172       O198   2.419   1_545  S
Zr172       O199   2.403   1_545  S
Zr172       O174   2.443   1_545  S
Zr172       O175   2.387       .  S
Zr172       O176   2.340       .  S
O173        H210   0.990       .  S
O174        H205   0.990       .  S
O174        H219   0.990       .  S
O176        H202   0.965       .  S
O177       Zr187   2.397       .  S
O178       Zr187   2.365       .  S
O178        H203   0.962       .  S
C180        C312   1.524       .  S
C181       C2944   1.521       .  S
O182        H218   0.990       .  S
O183        C185   1.305       .  A
O184        C185   1.280       .  A
C185        C449   1.556       .  S
O186       Zr187   2.443       .  S
O186        H215   0.991       .  S
Zr187       O190   2.441       .  S
Zr187       O191   2.440       .  S
Zr187       O192   2.530       .  S
O188        C193   1.286       .  A
O189        H206   0.991       .  S
O189        H221   0.991       .  S
O190        H207   0.991       .  S
O191        H211   0.990       .  S
O191        H220   0.990       .  S
O192        C193   1.303       .  A
C193        C245   1.468       .  S
O194        H213   0.987   1_545  S
O194        H217   0.982   1_545  S
O195        H209   0.990       .  S
O195        H216   0.990       .  S
O196        C200   1.268       .  A
O197        C200   1.248       .  A
O198        H208   0.989       .  S
O199        H212   0.986       .  S
C200        C530   1.454       .  S
Zr223       O224   2.439       .  S
Zr223       O225   2.498       .  S
Zr223       O226   2.440       .  S
Zr223       O229   2.603       .  S
Zr223       O231   2.429       .  S
Zr223       O232   2.409       .  S
Zr223       O233   2.485       .  S
Zr223       O234   2.407       .  S
O224        H280   0.991       .  S
O224        H288   0.989       .  S
O225        C245   1.294       .  A
O226        C247   1.287       .  A
O227       Zr237   2.341       .  S
O227        C246   1.254       .  A
O228       Zr236   2.542       .  S
O228        C247   1.308       .  A
O229        C246   1.317       .  A
O230       Zr238   2.365       .  S
O230        C245   1.255       .  A
O231       Zr236   2.416       .  S
O231       Zr238   2.293       .  S
O232       Zr237   2.397       .  S
O232       Zr238   2.443       .  S
O232        H267   0.966       .  S
O233       Zr236   2.458       .  S
O233       Zr253   2.430       .  S
O233        H270   0.963       .  S
O234       Zr237   2.360       .  S
O234       Zr253   2.431       .  S
Zr235       O260   2.445       .  S
Zr235       O254   2.436       .  S
Zr235       O262   2.385       .  S
Zr235       O250   2.427       .  S
Zr235       O241   2.353       .  S
Zr235       O242   2.390       .  S
Zr235       O243   2.376       .  S
Zr235       O244   2.438       .  S
Zr236       O255   2.435       .  S
Zr236       O248   2.437       .  S
Zr236       O249   2.621       .  S
Zr236       O242   2.394       .  S
Zr236       O243   2.407       .  S
Zr237       O239   2.443   1_545  S
Zr237       O261   2.432       .  S
Zr237       O263   2.304       .  S
Zr237       O241   2.397       .  S
Zr237       O244   2.300       .  S
Zr238       O264   2.394       .  S
Zr238       O265   2.412       .  S
Zr238       O240   2.445       .  S
Zr238       O241   2.378       .  S
Zr238       O242   2.350       .  S
O239        H276   0.991       .  S
O240        H271   0.990       .  S
O240        H285   0.989       .  S
O242        H268   0.958       .  S
O243       Zr253   2.404       .  S
O244       Zr253   2.360       .  S
O244        H269   0.969       .  S
C246        C510   1.525       .  S
C247       C2980   1.503       .  S
O248        H284   0.990       .  S
O249        C251   1.316       .  A
O250        C251   1.279       .  A
C251        C383   1.550       .  S
O252       Zr253   2.436       .  S
O252        H281   0.991       .  S
Zr253       O256   2.434       .  S
Zr253       O257   2.437       .  S
Zr253       O258   2.502       .  S
O254        C259   1.290       .  A
O255        H272   0.991       .  S
O255        H287   0.990       .  S
O256        H273   0.991       .  S
O257        H277   0.990       .  S
O257        H286   0.990       .  S
O258        C259   1.298       .  A
O260        H279   0.989       .  S
O260        H283   0.985       .  S
O261        H275   0.992   1_545  S
O261        H282   0.967       .  S
O262        C266   1.246       .  A
O263        C266   1.241       .  A
O264        H274   0.990       .  S
O265        H278   0.991       .  S
C266        C464   1.425       .  S
Zr289       O290   2.434       .  S
Zr289       O291   2.449       .  S
Zr289       O292   2.434       .  S
Zr289       O295   2.602       .  S
Zr289       O297   2.423       .  S
Zr289       O298   2.390       .  S
Zr289       O299   2.465       .  S
Zr289       O300   2.369       .  S
O290        H346   0.989       .  S
O290        H354   0.992       .  S
O291        C311   1.282       .  A
O292        C313   1.288       .  A
O293       Zr303   2.348       .  S
O293        C312   1.251       .  A
O294       Zr302   2.543       .  S
O294        C313   1.309       .  A
O295        C312   1.319       .  A
O296       Zr304   2.405   1_545  S
O296        C311   1.263       .  A
O297       Zr302   2.397       .  S
O297       Zr304   2.306   1_545  S
O298       Zr303   2.384       .  S
O298       Zr304   2.419   1_545  S
O298        H333   0.969       .  S
O299       Zr302   2.454       .  S
O299       Zr319   2.401       .  S
O299        H336   0.963       .  S
O300       Zr303   2.400       .  S
O300       Zr319   2.423       .  S
Zr301       O326   2.429   1_545  S
Zr301       O320   2.458       .  S
Zr301       O328   2.397   1_545  S
Zr301       O316   2.435   1_556  S
Zr301       O308   2.406       .  S
Zr301       O309   2.391       .  S
Zr301       O310   2.415       .  S
Zr301       O307   2.320       .  S
Zr302       O321   2.435       .  S
Zr302       O314   2.437       .  S
Zr302       O315   2.623       .  S
Zr302       O308   2.391       .  S
Zr302       O309   2.391       .  S
Zr303       O305   2.454       .  S
Zr303       O327   2.459       .  S
Zr303       O329   2.346       .  S
Zr303       O310   2.312       .  S
Zr303       O307   2.346       .  S
Zr304       O330   2.435       .  S
Zr304       O331   2.440       .  S
Zr304       O306   2.457       .  S
Zr304       O308   2.371   1_565  S
Zr304       O307   2.314   1_565  S
O305        H342   0.992       .  S
O306        H337   0.991       .  S
O306        H351   0.988       .  S
O308        H334   0.965   1_545  S
O309       Zr319   2.381       .  S
O310       Zr319   2.329       .  S
O310        H335   0.968       .  S
C311        C523   1.462   1_545  S
C313       C2932   1.500       .  S
O314        H350   0.990   1_545  S
O315        C317   1.319   1_556  A
O316        C317   1.282       .  A
O318       Zr319   2.435       .  S
O318        H347   0.991       .  S
Zr319       O322   2.433       .  S
Zr319       O323   2.437       .  S
Zr319       O324   2.489       .  S
O320        C325   1.291       .  A
O321        H338   0.990       .  S
O321        H353   0.991       .  S
O322        H339   0.990       .  S
O323        H343   0.990       .  S
O323        H352   0.991       .  S
O324        C325   1.296       .  A
C325        C377   1.468   1_556  S
O326        H345   0.986       .  S
O326        H349   0.988       .  S
O327        H341   0.981       .  S
O327        H348   0.988       .  S
O328        C332   1.261   1_565  A
O329        C332   1.234       .  A
O330        H340   0.992       .  S
O331        H344   0.990       .  S
Zr355       O356   2.437   1_554  S
Zr355       O357   2.488       .  S
Zr355       O358   2.441       .  S
Zr355       O361   2.589       .  S
Zr355       O363   2.434       .  S
Zr355       O364   2.405       .  S
Zr355       O365   2.481       .  S
Zr355       O366   2.404       .  S
O356        H412   0.992       .  S
O356        H420   0.988       .  S
O357        C377   1.287       .  A
O358        C379   1.291       .  A
O359       Zr369   2.358       .  S
O359        C378   1.259       .  A
O360       Zr368   2.526       .  S
O360        C379   1.306       .  A
O361        C378   1.316       .  A
O362       Zr370   2.357       .  S
O362        C377   1.252       .  A
O363       Zr368   2.418       .  S
O363       Zr370   2.297       .  S
O364       Zr369   2.385       .  S
O364       Zr370   2.437       .  S
O364        H399   0.961       .  S
O365       Zr368   2.462       .  S
O365       Zr385   2.421       .  S
O365        H402   0.960       .  S
O366       Zr369   2.362       .  S
O366       Zr385   2.431       .  S
Zr367       O392   2.433       .  S
Zr367       O386   2.480       .  S
Zr367       O394   2.445       .  S
Zr367       O382   2.447       .  S
Zr367       O373   2.357       .  S
Zr367       O374   2.390       .  S
Zr367       O375   2.380       .  S
Zr367       O376   2.417       .  S
Zr368       O387   2.434       .  S
Zr368       O380   2.434       .  S
Zr368       O381   2.606       .  S
Zr368       O374   2.407       .  S
Zr368       O375   2.417       .  S
Zr369       O371   2.444   1_545  S
Zr369       O393   2.439   1_545  S
Zr369       O395   2.305       .  S
Zr369       O373   2.392       .  S
Zr369       O376   2.310       .  S
Zr370       O396   2.409       .  S
Zr370       O397   2.428       .  S
Zr370       O372   2.454       .  S
Zr370       O373   2.406       .  S
Zr370       O374   2.354       .  S
O371        H408   0.991       .  S
O372        H403   0.992       .  S
O372        H417   0.990       .  S
O374        H400   0.962       .  S
O375       Zr385   2.412       .  S
O376       Zr385   2.390       .  S
O376        H401   0.961       .  S
C379       C3001   1.515       .  S
O380        H416   0.991       .  S
O381        C383   1.311       .  A
O382        C383   1.278       .  A
O384       Zr385   2.441       .  S
O384        H413   0.990       .  S
Zr385       O388   2.437       .  S
Zr385       O389   2.439       .  S
Zr385       O390   2.468       .  S
O386        C391   1.297       .  A
O387        H404   0.991       .  S
O387        H419   0.990       .  S
O388        H405   0.991       .  S
O389        H409   0.990       .  S
O389        H418   0.990       .  S
O390        C391   1.289       .  A
C391        C443   1.473       .  S
O392        H411   0.983       .  S
O392        H415   0.986       .  S
O393        H407   0.989       .  S
O393        H414   0.981       .  S
O394        C398   1.256       .  A
O395        C398   1.246       .  A
O396        H406   0.991       .  S
O397        H410   0.990       .  S
Zr421       O422   2.438       .  S
Zr421       O423   2.484       .  S
Zr421       O424   2.429       .  S
Zr421       O427   2.604       .  S
Zr421       O429   2.426       .  S
Zr421       O430   2.390       .  S
Zr421       O431   2.478       .  S
Zr421       O432   2.366       .  S
O422        H478   0.992       .  S
O422        H486   0.989       .  S
O423        C443   1.289   1_565  A
O424        C445   1.285       .  A
O425       Zr435   2.361       .  S
O425        C444   1.255       .  A
O426       Zr434   2.540       .  S
O426        C445   1.309       .  A
O427        C444   1.317       .  A
O428       Zr436   2.392       .  S
O428        C443   1.260       .  A
O429       Zr434   2.402       .  S
O429       Zr436   2.298   1_565  S
O430       Zr435   2.373       .  S
O430       Zr436   2.434   1_565  S
O430        H465   0.974       .  S
O431       Zr434   2.461       .  S
O431       Zr451   2.401       .  S
O431        H468   0.963       .  S
O432       Zr435   2.394       .  S
O432       Zr451   2.414       .  S
Zr433       O458   2.400   1_565  S
Zr433       O452   2.471       .  S
Zr433       O460   2.415   1_565  S
Zr433       O448   2.430       .  S
Zr433       O440   2.414   1_565  S
Zr433       O441   2.391       .  S
Zr433       O442   2.408       .  S
Zr433       O439   2.308   1_565  S
Zr434       O453   2.434       .  S
Zr434       O446   2.435       .  S
Zr434       O447   2.638   1_565  S
Zr434       O440   2.384   1_565  S
Zr434       O441   2.391       .  S
Zr435       O437   2.448       .  S
Zr435       O459   2.440       .  S
Zr435       O461   2.344       .  S
Zr435       O442   2.302       .  S
Zr435       O439   2.328   1_565  S
Zr436       O462   2.426       .  S
Zr436       O463   2.444       .  S
Zr436       O438   2.456       .  S
Zr436       O440   2.376       .  S
Zr436       O439   2.309       .  S
O437        H474   0.991       .  S
O438        H469   0.989       .  S
O438        H483   0.991       .  S
O440        H466   0.964       .  S
O441       Zr451   2.384       .  S
O442       Zr451   2.359       .  S
O442        H467   0.965       .  S
C445       C2917   1.493       .  S
O446        H482   0.990   1_565  S
O447        C449   1.319       .  A
O448        C449   1.275   1_565  A
O450       Zr451   2.436       .  S
O450        H479   0.990       .  S
Zr451       O454   2.435       .  S
Zr451       O455   2.437       .  S
Zr451       O456   2.458       .  S
O452        C457   1.295       .  A
O453        H470   0.990       .  S
O453        H485   0.991       .  S
O454        H471   0.991       .  S
O455        H475   0.990       .  S
O455        H484   0.991       .  S
O456        C457   1.288       .  A
C457        C509   1.459       .  S
O458        H477   0.986       .  S
O458        H481   0.987       .  S
O459        H473   0.989       .  S
O459        H480   0.981   1_565  S
O460        C464   1.255       .  A
O461        C464   1.244   1_565  A
O462        H472   0.990       .  S
O463        H476   0.989       .  S
Zr487       O488   2.437       .  S
Zr487       O489   2.443       .  S
Zr487       O490   2.443       .  S
Zr487       O493   2.600       .  S
Zr487       O495   2.432       .  S
Zr487       O496   2.403       .  S
Zr487       O497   2.461       .  S
Zr487       O498   2.372       .  S
O488        H544   0.990       .  S
O488        H552   0.990       .  S
O489        C509   1.279       .  A
O490        C511   1.292       .  A
O491       Zr501   2.369   1_545  S
O491        C510   1.258       .  A
O492       Zr500   2.549       .  S
O492        C511   1.311       .  A
O493        C510   1.319   1_565  A
O494       Zr502   2.383       .  S
O494        C509   1.258       .  A
O495       Zr500   2.398       .  S
O495       Zr502   2.320       .  S
O496       Zr501   2.383       .  S
O496       Zr502   2.435       .  S
O496        H531   0.962       .  S
O497       Zr500   2.459       .  S
O497       Zr517   2.403       .  S
O497        H534   0.968       .  S
O498       Zr501   2.397       .  S
O498       Zr517   2.413       .  S
Zr499       O524   2.413       .  S
Zr499       O518   2.464       .  S
Zr499       O526   2.435       .  S
Zr499       O514   2.467       .  S
Zr499       O506   2.403       .  S
Zr499       O507   2.398       .  S
Zr499       O508   2.399       .  S
Zr499       O505   2.323       .  S
Zr500       O519   2.436       .  S
Zr500       O512   2.437       .  S
Zr500       O513   2.616       .  S
Zr500       O506   2.406       .  S
Zr500       O507   2.412       .  S
Zr501       O503   2.448   1_565  S
Zr501       O525   2.452   1_565  S
Zr501       O527   2.370   1_565  S
Zr501       O508   2.326       .  S
Zr501       O505   2.346       .  S
Zr502       O528   2.433       .  S
Zr502       O529   2.456       .  S
Zr502       O504   2.457       .  S
Zr502       O506   2.345       .  S
Zr502       O505   2.331       .  S
O503        H540   0.991       .  S
O504        H535   0.991       .  S
O504        H549   0.988       .  S
O506        H532   0.962       .  S
O507       Zr517   2.397       .  S
O508       Zr517   2.364       .  S
O508        H533   0.967       .  S
C511       C2905   1.529       .  S
O512        H548   0.990       .  S
O513        C515   1.314       .  A
O514        C515   1.286       .  A
O516       Zr517   2.441       .  S
O516        H545   0.990       .  S
Zr517       O520   2.438       .  S
Zr517       O521   2.440       .  S
Zr517       O522   2.453       .  S
O518        C523   1.290       .  A
O519        H536   0.991       .  S
O519        H551   0.990       .  S
O520        H537   0.990       .  S
O521        H541   0.991       .  S
O521        H550   0.990   1_565  S
O522        C523   1.285       .  A
O524        H543   0.989       .  S
O524        H547   0.978       .  S
O525        H539   0.990       .  S
O525        H546   0.976       .  S
O526        C530   1.265   1_565  A
O527        C530   1.247       .  A
O528        H538   0.991       .  S
O529        H542   0.990       .  S
Zr553       O554   2.440       .  S
Zr553       O555   2.478       .  S
Zr553       O556   2.660       .  S
Zr553       O559   2.452       .  S
Zr553       O562   2.450       .  S
Zr553       O563   2.354       .  S
Zr553       O564   2.467       .  S
Zr553       O561   2.250       .  S
O554        H610   0.991       .  S
O554        H618   0.990       .  S
O555        C575   1.287       .  A
O556        C577   1.333       .  A
O557       Zr567   2.572       .  S
O557        C576   1.317       .  A
O558       Zr566   2.317       .  S
O558        C577   1.243       .  A
O559        C576   1.294       .  A
O560       Zr568   2.361       .  S
O560        C575   1.257       .  A
O561       Zr566   2.316       .  S
O561       Zr568   2.348       .  S
O562       Zr567   2.412       .  S
O562       Zr568   2.290       .  S
O562        H597   0.959       .  S
O563       Zr566   2.404       .  S
O563       Zr583   2.393       .  S
O563        H600   0.967       .  S
O564       Zr567   2.445       .  S
O564       Zr583   2.391       .  S
Zr565       O590   2.421       .  S
Zr565       O584   2.465       .  S
Zr565       O592   2.433       .  S
Zr565       O580   2.468       .  S
Zr565       O571   2.421       .  S
Zr565       O572   2.410       .  S
Zr565       O573   2.347       .  S
Zr565       O574   2.422       .  S
Zr566       O585   2.471       .  S
Zr566       O578   2.408       .  S
Zr566       O579   2.315       .  S
Zr566       O572   2.431       .  S
Zr566       O573   2.320       .  S
Zr567       O569   2.434       .  S
Zr567       O591   2.437       .  S
Zr567       O593   2.636       .  S
Zr567       O571   2.381       .  S
Zr567       O574   2.409       .  S
Zr568       O594   2.446       .  S
Zr568       O595   2.434       .  S
Zr568       O570   2.435       .  S
Zr568       O571   2.353       .  S
Zr568       O572   2.309       .  S
O569        H606   0.990       .  S
O570        H601   0.991       .  S
O570        H615   0.984       .  S
O572        H598   0.957       .  S
O573       Zr583   2.345       .  S
O574       Zr583   2.385       .  S
O574        H599   0.965       .  S
C575        C655   1.445       .  S
C576       C2893   1.525       .  S
C577        C841   1.521       .  S
O578        H614   0.987       .  S
O579        C581   1.246       .  A
O580        C581   1.277       .  A
C581        C911   1.506       .  S
O582       Zr583   2.437       .  S
O582        H611   0.991       .  S
Zr583       O586   2.438       .  S
Zr583       O587   2.439       .  S
Zr583       O588   2.447       .  S
O584        C589   1.290       .  A
O585        H602   0.988       .  S
O585        H617   0.991       .  S
O586        H603   0.990       .  S
O587        H607   0.990       .  S
O587        H616   0.990       .  S
O588        C589   1.287       .  A
C589        C773   1.448       .  S
O590        H609   0.987       .  S
O590        H613   0.987       .  S
O591        H605   0.988       .  S
O591        H612   0.991       .  S
O592        C596   1.279       .  A
O593        C596   1.321       .  A
O594        H604   0.991       .  S
O595        H608   0.990       .  S
C596       C1058   1.565       .  S
Zr619       O620   2.443       .  S
Zr619       O621   2.496       .  S
Zr619       O622   2.696       .  S
Zr619       O625   2.460       .  S
Zr619       O628   2.449       .  S
Zr619       O629   2.353       .  S
Zr619       O630   2.477       .  S
Zr619       O627   2.245       .  S
O620        H676   0.991       .  S
O620        H684   0.990       .  S
O621        C641   1.293       .  A
O622        C643   1.339       .  A
O623       Zr633   2.569       .  S
O623        C642   1.316       .  A
O624       Zr632   2.315       .  S
O624        C643   1.241       .  A
O625        C642   1.294       .  A
O626       Zr634   2.375       .  S
O626        C641   1.255       .  A
O627       Zr632   2.307       .  S
O627       Zr634   2.337       .  S
O628       Zr633   2.432       .  S
O628       Zr634   2.281       .  S
O628        H663   0.959       .  S
O629       Zr632   2.395       .  S
O629       Zr649   2.400       .  S
O629        H666   0.964       .  S
O630       Zr633   2.452       .  S
O630       Zr649   2.385       .  S
Zr631       O656   2.433       .  S
Zr631       O650   2.450       .  S
Zr631       O658   2.415       .  S
Zr631       O646   2.450       .  S
Zr631       O637   2.410       .  S
Zr631       O638   2.391       .  S
Zr631       O639   2.353       .  S
Zr631       O640   2.419       .  S
Zr632       O651   2.479       .  S
Zr632       O644   2.413       .  S
Zr632       O645   2.300       .  S
Zr632       O638   2.429       .  S
Zr632       O639   2.323       .  S
Zr633       O635   2.435       .  S
Zr633       O657   2.436       .  S
Zr633       O659   2.681       .  S
Zr633       O637   2.373       .  S
Zr633       O640   2.382       .  S
Zr634       O660   2.446       .  S
Zr634       O661   2.432       .  S
Zr634       O636   2.426       .  S
Zr634       O637   2.358       .  S
Zr634       O638   2.343       .  S
O635        H672   0.990       .  S
O636        H667   0.990       .  S
O636        H681   0.985       .  S
O638        H664   0.959       .  S
O639       Zr649   2.344       .  S
O640       Zr649   2.377       .  S
O640        H665   0.963       .  S
C641        C721   1.454       .  S
C642       C2881   1.529       .  S
C643        C973   1.535       .  S
O644        H680   0.988       .  S
O645        C647   1.242       .  A
O646        C647   1.270       .  A
C647        C845   1.489       .  S
O648       Zr649   2.436       .  S
O648        H677   0.990       .  S
Zr649       O652   2.438       .  S
Zr649       O653   2.441       .  S
Zr649       O654   2.436       .  S
O650        C655   1.292       .  A
O651        H668   0.984       .  S
O651        H683   0.991       .  S
O652        H669   0.991       .  S
O653        H673   0.990       .  S
O653        H682   0.991       .  S
O654        C655   1.285       .  A
O656        H675   0.989       .  S
O656        H679   0.988       .  S
O657        H671   0.989       .  S
O657        H678   0.991       .  S
O658        C662   1.275       .  A
O659        C662   1.332       .  A
O660        H670   0.990       .  S
O661        H674   0.991       .  S
C662        C926   1.569       .  S
Zr685       O686   2.443       .  S
Zr685       O687   2.454   1_554  S
Zr685       O688   2.641       .  S
Zr685       O691   2.438       .  S
Zr685       O694   2.463       .  S
Zr685       O695   2.362       .  S
Zr685       O696   2.463       .  S
Zr685       O693   2.260       .  S
O686        H742   0.991   1_554  S
O686        H750   0.990       .  S
O687        C707   1.281   1_556  A
O688        C709   1.327       .  A
O689       Zr699   2.584       .  S
O689        C708   1.319       .  A
O690       Zr698   2.313       .  S
O690        C709   1.244       .  A
O691        C708   1.293       .  A
O692       Zr700   2.389       .  S
O692        C707   1.255       .  A
O693       Zr698   2.317       .  S
O693       Zr700   2.339       .  S
O694       Zr699   2.413       .  S
O694       Zr700   2.302       .  S
O694        H729   0.958       .  S
O695       Zr698   2.400       .  S
O695       Zr715   2.404       .  S
O695        H732   0.966       .  S
O696       Zr699   2.447       .  S
O696       Zr715   2.396       .  S
Zr697       O722   2.420       .  S
Zr697       O716   2.457       .  S
Zr697       O724   2.432       .  S
Zr697       O712   2.464       .  S
Zr697       O703   2.435       .  S
Zr697       O704   2.399       .  S
Zr697       O705   2.347       .  S
Zr697       O706   2.411       .  S
Zr698       O717   2.469       .  S
Zr698       O710   2.402       .  S
Zr698       O711   2.318       .  S
Zr698       O704   2.433       .  S
Zr698       O705   2.325       .  S
Zr699       O701   2.434       .  S
Zr699       O723   2.433       .  S
Zr699       O725   2.636       .  S
Zr699       O703   2.406       .  S
Zr699       O706   2.411       .  S
Zr700       O726   2.440       .  S
Zr700       O727   2.456       .  S
Zr700       O702   2.457       .  S
Zr700       O703   2.379       .  S
Zr700       O704   2.319       .  S
O701        H738   0.990       .  S
O702        H733   0.991       .  S
O702        H747   0.988       .  S
O704        H730   0.935       .  S
O705       Zr715   2.337       .  S
O706       Zr715   2.390       .  S
O706        H731   0.967       .  S
C707        C787   1.442   1_554  S
C708       C3052   1.533       .  S
C709       C1039   1.513   1_554  S
O710        H746   0.987       .  S
O711        C713   1.245       .  A
O712        C713   1.278       .  A
C713        C977   1.507       .  S
O714       Zr715   2.436       .  S
O714        H743   0.990       .  S
Zr715       O718   2.437       .  S
Zr715       O719   2.440       .  S
Zr715       O720   2.460       .  S
O716        C721   1.286       .  A
O717        H734   0.989       .  S
O717        H749   0.992       .  S
O718        H735   0.990       .  S
O719        H739   0.990       .  S
O719        H748   0.990       .  S
O720        C721   1.288       .  A
O722        H741   0.982       .  S
O722        H745   0.983       .  S
O723        H737   0.989       .  S
O723        H744   0.989       .  S
O724        C728   1.278       .  A
O725        C728   1.320       .  A
O726        H736   0.991       .  S
O727        H740   0.990       .  S
C728        C860   1.564       .  S
Zr751       O752   2.442       .  S
Zr751       O753   2.485       .  S
Zr751       O754   2.670       .  S
Zr751       O757   2.439       .  S
Zr751       O760   2.449       .  S
Zr751       O761   2.345       .  S
Zr751       O762   2.471       .  S
Zr751       O759   2.249       .  S
O752        H808   0.991       .  S
O752        H816   0.990       .  S
O753        C773   1.290       .  A
O754        C775   1.333       .  A
O755       Zr765   2.592       .  S
O755        C774   1.322       .  A
O756       Zr764   2.312       .  S
O756        C775   1.239       .  A
O757        C774   1.292       .  A
O758       Zr766   2.372       .  S
O758        C773   1.255       .  A
O759       Zr764   2.310       .  S
O759       Zr766   2.344       .  S
O760       Zr765   2.420       .  S
O760       Zr766   2.282       .  S
O760        H795   0.957       .  S
O761       Zr764   2.399       .  S
O761       Zr781   2.389       .  S
O761        H798   0.963       .  S
O762       Zr765   2.445       .  S
O762       Zr781   2.389       .  S
Zr763       O788   2.432       .  S
Zr763       O782   2.441       .  S
Zr763       O790   2.409       .  S
Zr763       O778   2.459       .  S
Zr763       O769   2.409       .  S
Zr763       O770   2.398       .  S
Zr763       O771   2.344       .  S
Zr763       O772   2.426       .  S
Zr764       O783   2.482       .  S
Zr764       O776   2.419       .  S
Zr764       O777   2.311       .  S
Zr764       O770   2.439       .  S
Zr764       O771   2.321       .  S
Zr765       O767   2.434       .  S
Zr765       O789   2.434       .  S
Zr765       O791   2.671       .  S
Zr765       O769   2.381       .  S
Zr765       O772   2.386       .  S
Zr766       O792   2.446       .  S
Zr766       O793   2.436       .  S
Zr766       O768   2.431       .  S
Zr766       O769   2.356       .  S
Zr766       O770   2.351       .  S
O767        H804   0.990       .  S
O768        H799   0.991       .  S
O768        H813   0.983       .  S
O770        H796   0.959       .  S
O771       Zr781   2.346       .  S
O772       Zr781   2.371       .  S
O772        H797   0.962       .  S
C774       C2872   1.534       .  S
C775        C907   1.520       .  S
O776        H812   0.986       .  S
O777        C779   1.242       .  A
O778        C779   1.276       .  A
C779       C1043   1.499       .  S
O780       Zr781   2.437       .  S
O780        H809   0.991       .  S
Zr781       O784   2.437       .  S
Zr781       O785   2.441       .  S
Zr781       O786   2.444       .  S
O782        C787   1.289       .  A
O783        H800   0.983       .  S
O783        H815   0.991       .  S
O784        H801   0.990       .  S
O785        H805   0.990       .  S
O785        H814   0.991       .  S
O786        C787   1.287       .  A
O788        H807   0.989       .  S
O788        H811   0.987       .  S
O789        H803   0.990       .  S
O789        H810   0.989       .  S
O790        C794   1.275       .  A
O791        C794   1.330       .  A
O792        H802   0.991       .  S
O793        H806   0.990       .  S
C794        C992   1.563   1_556  S
Zr817       O818   2.433       .  S
Zr817       O819   2.492       .  S
Zr817       O820   2.689       .  S
Zr817       O823   2.433       .  S
Zr817       O825   2.321       .  S
Zr817       O826   2.458       .  S
Zr817       O827   2.341       .  S
Zr817       O828   2.478       .  S
O818        H874   0.992       .  S
O818        H882   0.989       .  S
O819        C839   1.291       .  A
O820        C841   1.338       .  A
O821       Zr831   2.574       .  S
O821        C840   1.318       .  A
O822       Zr830   2.307       .  S
O822        C841   1.245       .  A
O823        C840   1.291       .  A
O824       Zr832   2.384       .  S
O824        C839   1.256       .  A
O825       Zr830   2.368       .  S
O825       Zr832   2.433       .  S
O826       Zr831   2.424       .  S
O826       Zr832   2.286       .  S
O826        H861   0.957       .  S
O827       Zr830   2.416       .  S
O827       Zr847   2.385       .  S
O827        H864   0.969       .  S
O828       Zr831   2.457       .  S
O828       Zr847   2.387       .  S
Zr829       O854   2.424       .  S
Zr829       O848   2.450       .  S
Zr829       O856   2.399       .  S
Zr829       O844   2.452       .  S
Zr829       O835   2.412       .  S
Zr829       O836   2.391       .  S
Zr829       O837   2.349       .  S
Zr829       O838   2.414       .  S
Zr830       O849   2.458       .  S
Zr830       O842   2.442       .  S
Zr830       O843   2.310       .  S
Zr830       O836   2.415       .  S
Zr830       O837   2.333       .  S
Zr831       O833   2.435       .  S
Zr831       O855   2.437       .  S
Zr831       O857   2.686       .  S
Zr831       O835   2.364       .  S
Zr831       O838   2.379       .  S
Zr832       O858   2.436       .  S
Zr832       O859   2.420       .  S
Zr832       O834   2.438       .  S
Zr832       O835   2.364       .  S
Zr832       O836   2.346       .  S
O833        H870   0.991       .  S
O834        H865   0.990       .  S
O834        H879   0.984       .  S
O836        H862   0.957       .  S
O837       Zr847   2.348       .  S
O838       Zr847   2.374       .  S
O838        H863   0.964       .  S
C839        C919   1.454       .  S
C840       C3013   1.517       .  S
O842        H878   0.990       .  S
O843        C845   1.244       .  A
O844        C845   1.275       .  A
O846       Zr847   2.436       .  S
O846        H875   0.990       .  S
Zr847       O850   2.438       .  S
Zr847       O851   2.440       .  S
Zr847       O852   2.428       .  S
O848        C853   1.292       .  A
O849        H866   0.983       .  S
O849        H881   0.990       .  S
O850        H867   0.990       .  S
O851        H871   0.990       .  S
O851        H880   0.991       .  S
O852        C853   1.283       .  A
C853        C971   1.445       .  S
O854        H873   0.989       .  S
O854        H877   0.987       .  S
O855        H869   0.989       .  S
O855        H876   0.991       .  S
O856        C860   1.274       .  A
O857        C860   1.334       .  A
O858        H868   0.990       .  S
O859        H872   0.991       .  S
Zr883       O884   2.442       .  S
Zr883       O885   2.482       .  S
Zr883       O886   2.669       .  S
Zr883       O889   2.443       .  S
Zr883       O892   2.450       .  S
Zr883       O893   2.353       .  S
Zr883       O894   2.468       .  S
Zr883       O891   2.250       .  S
O884        H940   0.991       .  S
O884        H948   0.990       .  S
O885        C905   1.291       .  A
O886        C907   1.334       .  A
O887       Zr897   2.586       .  S
O887        C906   1.319       .  A
O888       Zr896   2.315       .  S
O888        C907   1.241       .  A
O889        C906   1.294       .  A
O890       Zr898   2.371       .  S
O890        C905   1.259       .  A
O891       Zr896   2.303       .  S
O891       Zr898   2.336       .  S
O892       Zr897   2.418       .  S
O892       Zr898   2.282       .  S
O892        H927   0.961       .  S
O893       Zr896   2.399       .  S
O893       Zr913   2.392       .  S
O893        H930   0.960       .  S
O894       Zr897   2.446       .  S
O894       Zr913   2.394       .  S
Zr895       O920   2.418       .  S
Zr895       O914   2.461       .  S
Zr895       O922   2.431       .  S
Zr895       O910   2.476       .  S
Zr895       O901   2.424       .  S
Zr895       O902   2.401       .  S
Zr895       O903   2.337       .  S
Zr895       O904   2.426       .  S
Zr896       O915   2.477       .  S
Zr896       O908   2.416       .  S
Zr896       O909   2.320       .  S
Zr896       O902   2.441       .  S
Zr896       O903   2.319       .  S
Zr897       O899   2.435       .  S
Zr897       O921   2.433       .  S
Zr897       O923   2.651       .  S
Zr897       O901   2.391       .  S
Zr897       O904   2.412       .  S
Zr898       O924   2.444       .  S
Zr898       O925   2.425       .  S
Zr898       O900   2.439       .  S
Zr898       O901   2.351       .  S
Zr898       O902   2.328       .  S
O899        H936   0.990       .  S
O900        H931   0.992       .  S
O900        H945   0.984       .  S
O902        H928   0.956       .  S
O903       Zr913   2.339       .  S
O904       Zr913   2.384       .  S
O904        H929   0.966       .  S
C905       C1051   1.447       .  S
C906       C2860   1.535       .  S
O908        H944   0.983       .  S
O909        C911   1.243       .  A
O910        C911   1.280       .  A
O912       Zr913   2.437       .  S
O912        H941   0.991       .  S
Zr913       O916   2.437       .  S
Zr913       O917   2.439       .  S
Zr913       O918   2.452       .  S
O914        C919   1.290       .  A
O915        H932   0.984       .  S
O915        H947   0.992       .  S
O916        H933   0.990       .  S
O917        H937   0.990       .  S
O917        H946   0.990       .  S
O918        C919   1.287       .  A
O920        H939   0.986       .  S
O920        H943   0.983       .  S
O921        H935   0.990       .  S
O921        H942   0.990       .  S
O922        C926   1.277       .  A
O923        C926   1.324       .  A
O924        H934   0.990       .  S
O925        H938   0.990       .  S
Zr949       O950   2.434       .  S
Zr949       O951   2.464       .  S
Zr949       O952   2.682       .  S
Zr949       O955   2.458       .  S
Zr949       O957   2.337       .  S
Zr949       O958   2.471       .  S
Zr949       O959   2.365       .  S
Zr949       O960   2.467       .  S
O950       H1006   0.991       .  S
O950       H1014   0.989       .  S
O951        C971   1.282       .  A
O952        C973   1.337       .  A
O953       Zr963   2.566       .  S
O953        C972   1.316       .  A
O954       Zr962   2.314       .  S
O954        C973   1.243       .  A
O955        C972   1.296       .  A
O956       Zr964   2.381       .  S
O956        C971   1.255       .  A
O957       Zr962   2.376       .  S
O957       Zr964   2.422       .  S
O958       Zr963   2.411       .  S
O958       Zr964   2.312       .  S
O958        H993   0.959       .  S
O959       Zr962   2.404       .  S
O959       Zr979   2.396       .  S
O959        H996   0.960       .  S
O960       Zr963   2.450       .  S
O960       Zr979   2.392       .  S
Zr961       O986   2.428       .  S
Zr961       O980   2.441       .  S
Zr961       O988   2.428       .  S
Zr961       O976   2.464       .  S
Zr961       O967   2.423       .  S
Zr961       O968   2.400       .  S
Zr961       O969   2.341       .  S
Zr961       O970   2.419       .  S
Zr962       O981   2.467       .  S
Zr962       O974   2.419       .  S
Zr962       O975   2.310       .  S
Zr962       O968   2.452       .  S
Zr962       O969   2.322       .  S
Zr963       O965   2.433       .  S
Zr963       O987   2.438       .  S
Zr963       O989   2.639       .  S
Zr963       O967   2.398       .  S
Zr963       O970   2.404       .  S
Zr964       O990   2.446       .  S
Zr964       O991   2.439       .  S
Zr964       O966   2.445       .  S
Zr964       O967   2.379       .  S
Zr964       O968   2.333       .  S
O965       H1002   0.990       .  S
O966        H997   0.990       .  S
O966       H1011   0.986       .  S
O968        H994   0.942       .  S
O969       Zr979   2.336       .  S
O970       Zr979   2.383       .  S
O970        H995   0.964       .  S
C972       C2845   1.523       .  S
O974       H1010   0.985       .  S
O975        C977   1.244       .  A
O976        C977   1.281       .  A
O978       Zr979   2.436       .  S
O978       H1007   0.990       .  S
Zr979       O982   2.437       .  S
Zr979       O983   2.440       .  S
Zr979       O984   2.456       .  S
O980        C985   1.286       .  A
O981        H998   0.986       .  S
O981       H1013   0.990       .  S
O982        H999   0.990       .  S
O983       H1003   0.990       .  S
O983       H1012   0.991       .  S
O984        C985   1.289       .  A
C985       C1037   1.445       .  S
O986       H1005   0.984       .  S
O986       H1009   0.986       .  S
O987       H1001   0.989       .  S
O987       H1008   0.992       .  S
O988        C992   1.277       .  A
O989        C992   1.320       .  A
O990       H1000   0.990       .  S
O991       H1004   0.991       .  S
Zr1015     O1016   2.444   1_556  S
Zr1015     O1017   2.476   1_556  S
Zr1015     O1018   2.655   1_556  S
Zr1015     O1021   2.447       .  S
Zr1015     O1024   2.446       .  S
Zr1015     O1025   2.354       .  S
Zr1015     O1026   2.468       .  S
Zr1015     O1023   2.261       .  S
O1016      H1072   0.991       .  S
O1016      H1080   0.989       .  S
O1017      C1037   1.289       .  A
O1018      C1039   1.330   1_554  A
O1019     Zr1029   2.595       .  S
O1019      C1038   1.322       .  A
O1020     Zr1028   2.311       .  S
O1020      C1039   1.244       .  A
O1021      C1038   1.290       .  A
O1022     Zr1030   2.380       .  S
O1022      C1037   1.255   1_556  A
O1023     Zr1028   2.318       .  S
O1023     Zr1030   2.343       .  S
O1024     Zr1029   2.418       .  S
O1024     Zr1030   2.279       .  S
O1024      H1059   0.956       .  S
O1025     Zr1028   2.404       .  S
O1025     Zr1045   2.397       .  S
O1025      H1062   0.962       .  S
O1026     Zr1029   2.449       .  S
O1026     Zr1045   2.395       .  S
Zr1027     O1052   2.421       .  S
Zr1027     O1046   2.439       .  S
Zr1027     O1054   2.401       .  S
Zr1027     O1042   2.455       .  S
Zr1027     O1033   2.418       .  S
Zr1027     O1034   2.382       .  S
Zr1027     O1035   2.359       .  S
Zr1027     O1036   2.414       .  S
Zr1028     O1047   2.468       .  S
Zr1028     O1040   2.406       .  S
Zr1028     O1041   2.315       .  S
Zr1028     O1034   2.415       .  S
Zr1028     O1035   2.325       .  S
Zr1029     O1031   2.436       .  S
Zr1029     O1053   2.437       .  S
Zr1029     O1055   2.683       .  S
Zr1029     O1033   2.374       .  S
Zr1029     O1036   2.389       .  S
Zr1030     O1056   2.443       .  S
Zr1030     O1057   2.418       .  S
Zr1030     O1032   2.449       .  S
Zr1030     O1033   2.366       .  S
Zr1030     O1034   2.323       .  S
O1031      H1068   0.990       .  S
O1032      H1063   0.992       .  S
O1032      H1077   0.985       .  S
O1034      H1060   0.942       .  S
O1035     Zr1045   2.344       .  S
O1036     Zr1045   2.381       .  S
O1036      H1061   0.966       .  S
C1038      C2833   1.538   1_556  S
O1040      H1076   0.988       .  S
O1041      C1043   1.246       .  A
O1042      C1043   1.271       .  A
O1044     Zr1045   2.437       .  S
O1044      H1073   0.990       .  S
Zr1045     O1048   2.439       .  S
Zr1045     O1049   2.440       .  S
Zr1045     O1050   2.456       .  S
O1046      C1051   1.289       .  A
O1047      H1064   0.989       .  S
O1047      H1079   0.991       .  S
O1048      H1065   0.990       .  S
O1049      H1069   0.991       .  S
O1049      H1078   0.990       .  S
O1050      C1051   1.289       .  A
O1052      H1071   0.989       .  S
O1052      H1075   0.985       .  S
O1053      H1067   0.989       .  S
O1053      H1074   0.991       .  S
O1054      C1058   1.274       .  A
O1055      C1058   1.333       .  A
O1056      H1066   0.991       .  S
O1057      H1070   0.992       .  S
C1081      N1082   1.372       .  A
C1081      N1086   1.374       .  A
C1081      C2908   1.516       .  S
N1082      C1083   1.369       .  A
C1083      N1084   1.357       .  A
C1083      C2824   1.505       .  S
N1084      C1085   1.352       .  A
C1085      N1086   1.365       .  A
C1085      C2812   1.495       .  S
C1087      N1088   1.375       .  A
C1087      N1092   1.363       .  A
C1087      C2956   1.497       .  S
N1088      C1089   1.371       .  A
C1089      N1090   1.355       .  A
C1089      C2809   1.494       .  S
N1090      C1091   1.355       .  A
C1091      N1092   1.360       .  A
C1091      C2797   1.486       .  S
C1093      N1094   1.384       .  A
C1093      N1098   1.367       .  A
C1093      C2836   1.531       .  S
N1094      C1095   1.377       .  A
C1095      N1096   1.354       .  A
C1095      C2785   1.510       .  S
N1096      C1097   1.353       .  A
C1097      N1098   1.362       .  A
C1097      C2800   1.486       .  S
C1099      N1100   1.368       .  A
C1099      N1104   1.381       .  A
C1099      C2896   1.519       .  S
N1100      C1101   1.364       .  A
C1101      N1102   1.358       .  A
C1101      C2821   1.501       .  S
N1102      C1103   1.355       .  A
C1103      N1104   1.376       .  A
C1103      C2788   1.512       .  S
C1105      N1106   1.381       .  A
C1105      N1110   1.368       .  A
C1105      C2884   1.528       .  S
N1106      C1107   1.375       .  A
C1107      N1108   1.353       .  A
C1107      C2764   1.506       .  S
N1108      C1109   1.356       .  A
C1109      N1110   1.363       .  A
C1109      C2773   1.494       .  S
C1111      N1112   1.379       .  A
C1111      N1116   1.368       .  A
C1111      C2857   1.517       .  S
N1112      C1113   1.371       .  A
C1113      N1114   1.355       .  A
C1113      C2761   1.507       .  S
N1114      C1115   1.360       .  A
C1115      N1116   1.364       .  A
C1115      C2749   1.497       .  S
C1117      N1118   1.367       .  A
C1117      N1122   1.374       .  A
C1117      C2737   1.510       .  S
N1118      C1119   1.362       .  A
C1119      N1120   1.357       .  A
C1119      C2776   1.495       .  S
N1120      C1121   1.355       .  A
C1121      N1122   1.368       .  A
C1121      C2725   1.496       .  S
C1123      N1124   1.377       .  A
C1123      N1128   1.373       .  A
C1123      C2713   1.524       .  S
N1124      C1125   1.365       .  A
C1125      N1126   1.348       .  A
C1125      C2728   1.494       .  S
N1126      C1127   1.354       .  A
C1127      N1128   1.369       .  A
C1127      C2752   1.501       .  S
C1129      N1130   1.378       .  A
C1129      N1134   1.371       .  A
C1129      C2848   1.518       .  S
N1130      C1131   1.373       .  A
C1131      N1132   1.355       .  A
C1131      C2689   1.506       .  S
N1132      C1133   1.358       .  A
C1133      N1134   1.367       .  A
C1133      C2701   1.504       .  S
C1135      N1136   1.365       .  A
C1135      N1140   1.381       .  A
C1135      C2869   1.518       .  S
N1136      C1137   1.361       .  A
C1137      N1138   1.355       .  A
C1137      C2677   1.493       .  S
N1138      C1139   1.353       .  A
C1139      N1140   1.375       .  A
C1139      C2692   1.505       .  S
C1141      N1142   1.369       .  A
C1141      N1146   1.374       .  A
C1141      C2668   1.514       .  S
N1142      C1143   1.365       .  A
C1143      N1144   1.360       .  A
C1143      C2704   1.502       .  S
N1144      C1145   1.356       .  A
C1145      N1146   1.367       .  A
C1145      C2653   1.500       .  S
C1147      N1148   1.378       .  A
C1147      N1152   1.367       .  A
C1147      C2641   1.518       .  S
N1148      C1149   1.370       .  A
C1149      N1150   1.352       .  A
C1149      C2656   1.499       .  S
N1150      C1151   1.355       .  A
C1151      N1152   1.362       .  A
C1151      C2680   1.492       .  S
C1153      N1154   1.375       .  A
C1153      N1158   1.371       .  A
C1153      C2617   1.526       .  S
N1154      C1155   1.367       .  A
C1155      N1156   1.353       .  A
C1155      C2605   1.494       .  S
N1156      C1157   1.356       .  A
C1157      N1158   1.367       .  A
C1157      C2629   1.498       .  S
C1159      N1160   1.370       .  A
C1159      N1164   1.374       .  A
C1159      C2581   1.514       .  S
N1160      C1161   1.366       .  A
C1161      N1162   1.357       .  A
C1161      C2593   1.500       .  S
N1162      C1163   1.352       .  A
C1163      N1164   1.366       .  A
C1163      C2608   1.492       .  S
C1165      N1166   1.367       .  A
C1165      N1170   1.382       .  A
C1165      C2569   1.519       .  S
N1166      C1167   1.363       .  A
C1167      N1168   1.358       .  A
C1167      C2632   1.497       .  S
N1168      C1169   1.357       .  A
C1169      N1170   1.378       .  A
C1169      C2557   1.514       .  S
C1171      N1172   1.365       .  A
C1171      N1176   1.382       .  A
C1171      C2548   1.513       .  S
N1172      C1173   1.360       .  A
C1173      N1174   1.358       .  A
C1173      C2596   1.501       .  S
N1174      C1175   1.356       .  A
C1175      N1176   1.377       .  A
C1175      C2560   1.513       .  S
C1177      N1178   1.373       .  A
C1177      N1182   1.380       .  A
C1177      C2965   1.516       .  S
N1178      C1179   1.368       .  A
C1179      N1180   1.357       .  A
C1179      C2533   1.512       .  S
N1180      C1181   1.351       .  A
C1181      N1182   1.371       .  A
C1181      C2521   1.506       .  S
C1183      N1184   1.376       .  A
C1183      N1188   1.363       .  A
C1183      C2929   1.498       .  S
N1184      C1185   1.372       .  A
C1185      N1186   1.355   1_545  A
C1185      C2524   1.503   1_545  S
N1186      C1187   1.356   1_565  A
C1187      N1188   1.360       .  A
C1187      C2509   1.492       .  S
C1189      N1190   1.372       .  A
C1189      N1194   1.381       .  A
C1189      C2497   1.520       .  S
N1190      C1191   1.368       .  A
C1191      N1192   1.355       .  A
C1191      C2536   1.508       .  S
N1192      C1193   1.352       .  A
C1193      N1194   1.375       .  A
C1193      C2488   1.509       .  S
C1195      N1196   1.380       .  A
C1195      N1200   1.361       .  A
C1195      C2473   1.509       .  S
N1196      C1197   1.376       .  A
C1197      N1198   1.357       .  A
C1197      C2485   1.507       .  S
N1198      C1199   1.358       .  A
C1199      N1200   1.357       .  A
C1199      C2512   1.490       .  S
C1201      N1202   1.374       .  A
C1201      N1206   1.362       .  A
C1201      C2920   1.494       .  S
N1202      C1203   1.370       .  A
C1203      N1204   1.355       .  A
C1203      C2449   1.494   1_565  S
N1204      C1205   1.356       .  A
C1205      N1206   1.357       .  A
C1205      C2461   1.484       .  S
C1207      N1208   1.374       .  A
C1207      N1212   1.374       .  A
C1207      C2941   1.523       .  S
N1208      C1209   1.367       .  A
C1209      N1210   1.357       .  A
C1209      C2437   1.502       .  S
N1210      C1211   1.354       .  A
C1211      N1212   1.366       .  A
C1211      C2452   1.495       .  S
C1213      N1214   1.365       .  A
C1213      N1218   1.383       .  A
C1213      C2425   1.522       .  S
N1214      C1215   1.360       .  A
C1215      N1216   1.356       .  A
C1215      C2464   1.488       .  S
N1216      C1217   1.355       .  A
C1217      N1218   1.377       .  A
C1217      C2416   1.511       .  S
C1219      N1220   1.370       .  A
C1219      N1224   1.381       .  A
C1219      C2404   1.520       .  S
N1220      C1221   1.366       .  A
C1221      N1222   1.358       .  A
C1221      C2440   1.505       .  S
N1222      C1223   1.356       .  A
C1223      N1224   1.375       .  A
C1223      C2413   1.513       .  S
Zr1225     O1226   2.441   1_556  S
Zr1225     O1227   2.479   1_556  S
Zr1225     O1228   2.660   1_556  S
Zr1225     O1231   2.452   1_556  S
Zr1225     O1234   2.451       .  S
Zr1225     O1235   2.351       .  S
Zr1225     O1236   2.470       .  S
Zr1225     O1233   2.255       .  S
O1226      H1282   0.991       .  S
O1226      H1290   0.989       .  S
O1227      C1247   1.287       .  A
O1228      C1249   1.332       .  A
O1229     Zr1239   2.572       .  S
O1229      C1248   1.317       .  A
O1230     Zr1238   2.322       .  S
O1230      C1249   1.243   1_556  A
O1231      C1248   1.295   1_554  A
O1232     Zr1240   2.363   1_554  S
O1232      C1247   1.252       .  A
O1233     Zr1238   2.318       .  S
O1233     Zr1240   2.352       .  S
O1234     Zr1239   2.411       .  S
O1234     Zr1240   2.292       .  S
O1234      H1269   0.955       .  S
O1235     Zr1238   2.404       .  S
O1235     Zr1255   2.395       .  S
O1235      H1272   0.970       .  S
O1236     Zr1239   2.449       .  S
O1236     Zr1255   2.389       .  S
Zr1237     O1262   2.426       .  S
Zr1237     O1256   2.448       .  S
Zr1237     O1264   2.415       .  S
Zr1237     O1252   2.449       .  S
Zr1237     O1243   2.410       .  S
Zr1237     O1244   2.395       .  S
Zr1237     O1245   2.354       .  S
Zr1237     O1246   2.414       .  S
Zr1238     O1257   2.478   1_565  S
Zr1238     O1250   2.407       .  S
Zr1238     O1251   2.311       .  S
Zr1238     O1244   2.439       .  S
Zr1238     O1245   2.320       .  S
Zr1239     O1241   2.435       .  S
Zr1239     O1263   2.436       .  S
Zr1239     O1265   2.674       .  S
Zr1239     O1243   2.369       .  S
Zr1239     O1246   2.380       .  S
Zr1240     O1266   2.447       .  S
Zr1240     O1267   2.446       .  S
Zr1240     O1242   2.438       .  S
Zr1240     O1243   2.365       .  S
Zr1240     O1244   2.336       .  S
O1241      H1278   0.990       .  S
O1242      H1273   0.991       .  S
O1242      H1287   0.985       .  S
O1244      H1270   0.954       .  S
O1245     Zr1255   2.341       .  S
O1246     Zr1255   2.375       .  S
O1246      H1271   0.964       .  S
C1247      C1327   1.443       .  S
C1248      C2389   1.521   1_556  S
C1249      C1579   1.525   1_565  S
O1250      H1286   0.987       .  S
O1251      C1253   1.245       .  A
O1252      C1253   1.272       .  A
C1253      C1649   1.500   1_565  S
O1254     Zr1255   2.436       .  S
O1254      H1283   0.990       .  S
Zr1255     O1258   2.437       .  S
Zr1255     O1259   2.441       .  S
Zr1255     O1260   2.442       .  S
O1256      C1261   1.291       .  A
O1257      H1274   0.989       .  S
O1257      H1289   0.990       .  S
O1258      H1275   0.990       .  S
O1259      H1279   0.989       .  S
O1259      H1288   0.991       .  S
O1260      C1261   1.287       .  A
C1261      C1379   1.442       .  S
O1262      H1281   0.988       .  S
O1262      H1285   0.987       .  S
O1263      H1277   0.990       .  S
O1263      H1284   0.991       .  S
O1264      C1268   1.277       .  A
O1265      C1268   1.331       .  A
O1266      H1276   0.991       .  S
O1267      H1280   0.991       .  S
C1268      C1730   1.566       .  S
Zr1291     O1292   2.440       .  S
Zr1291     O1293   2.478       .  S
Zr1291     O1294   2.690       .  S
Zr1291     O1297   2.452       .  S
Zr1291     O1300   2.457       .  S
Zr1291     O1301   2.350       .  S
Zr1291     O1302   2.481       .  S
Zr1291     O1299   2.255       .  S
O1292      H1348   0.991       .  S
O1292      H1356   0.989       .  S
O1293      C1313   1.288       .  A
O1294      C1315   1.339       .  A
O1295     Zr1305   2.591       .  S
O1295      C1314   1.321       .  A
O1296     Zr1304   2.311       .  S
O1296      C1315   1.243       .  A
O1297      C1314   1.295       .  A
O1298     Zr1306   2.377       .  S
O1298      C1313   1.255   1_545  A
O1299     Zr1304   2.302       .  S
O1299     Zr1306   2.335   1_565  S
O1300     Zr1305   2.418       .  S
O1300     Zr1306   2.287   1_565  S
O1300      H1335   0.960       .  S
O1301     Zr1304   2.394       .  S
O1301     Zr1321   2.394       .  S
O1301      H1338   0.965       .  S
O1302     Zr1305   2.458       .  S
O1302     Zr1321   2.397       .  S
Zr1303     O1328   2.420   1_565  S
Zr1303     O1322   2.437       .  S
Zr1303     O1330   2.410       .  S
Zr1303     O1318   2.453       .  S
Zr1303     O1309   2.414       .  S
Zr1303     O1310   2.389       .  S
Zr1303     O1311   2.346       .  S
Zr1303     O1312   2.420       .  S
Zr1304     O1323   2.475       .  S
Zr1304     O1316   2.421       .  S
Zr1304     O1317   2.312       .  S
Zr1304     O1310   2.417       .  S
Zr1304     O1311   2.320       .  S
Zr1305     O1307   2.435       .  S
Zr1305     O1329   2.438       .  S
Zr1305     O1331   2.693       .  S
Zr1305     O1309   2.377       .  S
Zr1305     O1312   2.386       .  S
Zr1306     O1332   2.440       .  S
Zr1306     O1333   2.417       .  S
Zr1306     O1308   2.446       .  S
Zr1306     O1309   2.359   1_545  S
Zr1306     O1310   2.327   1_545  S
O1307      H1344   0.990       .  S
O1308      H1339   0.991       .  S
O1308      H1353   0.985       .  S
O1310      H1336   0.955   1_565  S
O1311     Zr1321   2.325       .  S
O1312     Zr1321   2.378       .  S
O1312      H1337   0.964       .  S
C1313      C1459   1.447   1_565  S
C1314      C2500   1.531       .  S
C1315      C1513   1.531       .  S
O1316      H1352   0.983       .  S
O1317      C1319   1.243       .  A
O1318      C1319   1.274       .  A
C1319      C1583   1.481   1_565  S
O1320     Zr1321   2.435       .  S
O1320      H1349   0.990       .  S
Zr1321     O1324   2.438       .  S
Zr1321     O1325   2.441       .  S
Zr1321     O1326   2.452       .  S
O1322      C1327   1.289       .  A
O1323      H1340   0.983       .  S
O1323      H1355   0.991       .  S
O1324      H1341   0.991       .  S
O1325      H1345   0.991       .  S
O1325      H1354   0.990       .  S
O1326      C1327   1.289       .  A
O1328      H1347   0.989       .  S
O1328      H1351   0.987       .  S
O1329      H1343   0.990       .  S
O1329      H1350   0.991       .  S
O1330      C1334   1.276       .  A
O1331      C1334   1.335       .  A
O1332      H1342   0.991       .  S
O1333      H1346   0.991       .  S
C1334      C1664   1.575   1_564  S
Zr1357     O1358   2.439       .  S
Zr1357     O1359   2.477       .  S
Zr1357     O1360   2.672       .  S
Zr1357     O1363   2.456       .  S
Zr1357     O1366   2.450       .  S
Zr1357     O1367   2.350       .  S
Zr1357     O1368   2.475       .  S
Zr1357     O1365   2.252       .  S
O1358      H1414   0.991       .  S
O1358      H1422   0.990       .  S
O1359      C1379   1.288   1_545  A
O1360      C1381   1.334       .  A
O1361     Zr1371   2.589       .  S
O1361      C1380   1.321       .  A
O1362     Zr1370   2.321       .  S
O1362      C1381   1.243       .  A
O1363      C1380   1.296       .  A
O1364     Zr1372   2.364       .  S
O1364      C1379   1.256       .  A
O1365     Zr1370   2.300       .  S
O1365     Zr1372   2.341   1_545  S
O1366     Zr1371   2.420       .  S
O1366     Zr1372   2.285   1_545  S
O1366      H1401   0.957       .  S
O1367     Zr1370   2.402       .  S
O1367     Zr1387   2.396       .  S
O1367      H1404   0.964       .  S
O1368     Zr1371   2.451       .  S
O1368     Zr1387   2.389       .  S
Zr1369     O1394   2.441   1_545  S
Zr1369     O1388   2.437       .  S
Zr1369     O1396   2.409       .  S
Zr1369     O1384   2.460       .  S
Zr1369     O1375   2.411       .  S
Zr1369     O1376   2.380       .  S
Zr1369     O1377   2.354       .  S
Zr1369     O1378   2.427       .  S
Zr1370     O1389   2.477       .  S
Zr1370     O1382   2.415       .  S
Zr1370     O1383   2.307       .  S
Zr1370     O1376   2.443       .  S
Zr1370     O1377   2.329       .  S
Zr1371     O1373   2.434       .  S
Zr1371     O1395   2.437       .  S
Zr1371     O1397   2.677       .  S
Zr1371     O1375   2.378       .  S
Zr1371     O1378   2.390       .  S
Zr1372     O1398   2.448       .  S
Zr1372     O1399   2.438       .  S
Zr1372     O1374   2.430       .  S
Zr1372     O1375   2.355   1_565  S
Zr1372     O1376   2.345   1_565  S
O1373      H1410   0.990       .  S
O1374      H1405   0.986       .  S
O1374      H1419   0.987       .  S
O1376      H1402   0.952   1_545  S
O1377     Zr1387   2.349       .  S
O1378     Zr1387   2.374       .  S
O1378      H1403   0.964       .  S
C1380      C2401   1.532       .  S
C1381      C1645   1.528       .  S
O1382      H1418   0.984       .  S
O1383      C1385   1.244       .  A
O1384      C1385   1.273       .  A
C1385      C1715   1.493   1_545  S
O1386     Zr1387   2.436       .  S
O1386      H1415   0.990       .  S
Zr1387     O1390   2.437       .  S
Zr1387     O1391   2.442       .  S
Zr1387     O1392   2.437       .  S
O1388      C1393   1.289       .  A
O1389      H1406   0.986       .  S
O1389      H1421   0.991       .  S
O1390      H1407   0.991       .  S
O1391      H1411   0.991       .  S
O1391      H1420   0.991       .  S
O1392      C1393   1.285       .  A
C1393      C1445   1.436       .  S
O1394      H1413   0.989       .  S
O1394      H1417   0.987       .  S
O1395      H1409   0.990       .  S
O1395      H1416   0.990       .  S
O1396      C1400   1.275       .  A
O1397      C1400   1.332       .  A
O1398      H1408   0.991       .  S
O1399      H1412   0.990       .  S
C1400      C1532   1.565   1_545  S
Zr1423     O1424   2.440       .  S
Zr1423     O1425   2.467       .  S
Zr1423     O1426   2.666       .  S
Zr1423     O1429   2.434       .  S
Zr1423     O1432   2.451       .  S
Zr1423     O1433   2.344       .  S
Zr1423     O1434   2.468       .  S
Zr1423     O1431   2.245       .  S
O1424      H1480   0.991       .  S
O1424      H1488   0.989       .  S
O1425      C1445   1.287       .  A
O1426      C1447   1.335       .  A
O1427     Zr1437   2.576       .  S
O1427      C1446   1.318       .  A
O1428     Zr1436   2.313       .  S
O1428      C1447   1.246       .  A
O1429      C1446   1.290       .  A
O1430     Zr1438   2.365       .  S
O1430      C1445   1.258       .  A
O1431     Zr1436   2.295       .  S
O1431     Zr1438   2.336       .  S
O1432     Zr1437   2.408       .  S
O1432     Zr1438   2.291       .  S
O1432      H1467   0.961       .  S
O1433     Zr1436   2.389       .  S
O1433     Zr1453   2.396       .  S
O1433      H1470   0.968       .  S
O1434     Zr1437   2.446       .  S
O1434     Zr1453   2.393       .  S
Zr1435     O1460   2.422       .  S
Zr1435     O1454   2.455       .  S
Zr1435     O1462   2.433       .  S
Zr1435     O1450   2.473       .  S
Zr1435     O1441   2.422       .  S
Zr1435     O1442   2.404       .  S
Zr1435     O1443   2.349       .  S
Zr1435     O1444   2.426       .  S
Zr1436     O1455   2.474   1_545  S
Zr1436     O1448   2.414       .  S
Zr1436     O1449   2.313   1_545  S
Zr1436     O1442   2.433       .  S
Zr1436     O1443   2.329       .  S
Zr1437     O1439   2.434       .  S
Zr1437     O1461   2.438       .  S
Zr1437     O1463   2.645       .  S
Zr1437     O1441   2.385       .  S
Zr1437     O1444   2.407       .  S
Zr1438     O1464   2.443       .  S
Zr1438     O1465   2.426       .  S
Zr1438     O1440   2.441       .  S
Zr1438     O1441   2.348       .  S
Zr1438     O1442   2.326       .  S
O1439      H1476   0.989       .  S
O1440      H1471   0.991       .  S
O1440      H1485   0.983       .  S
O1442      H1468   0.959       .  S
O1443     Zr1453   2.348       .  S
O1444     Zr1453   2.383       .  S
O1444      H1469   0.964       .  S
C1446      C2545   1.519       .  S
C1447      C1711   1.521   1_545  S
O1448      H1484   0.983       .  S
O1449      C1451   1.242       .  A
O1450      C1451   1.277   1_545  A
C1451      C1517   1.504       .  S
O1452     Zr1453   2.436       .  S
O1452      H1481   0.990       .  S
Zr1453     O1456   2.437       .  S
Zr1453     O1457   2.440       .  S
Zr1453     O1458   2.446       .  S
O1454      C1459   1.290       .  A
O1455      H1472   0.986       .  S
O1455      H1487   0.990       .  S
O1456      H1473   0.990       .  S
O1457      H1477   0.991       .  S
O1457      H1486   0.989       .  S
O1458      C1459   1.287       .  A
O1460      H1479   0.987       .  S
O1460      H1483   0.985       .  S
O1461      H1475   0.989       .  S
O1461      H1482   0.991       .  S
O1462      C1466   1.277       .  A
O1463      C1466   1.322       .  A
O1464      H1474   0.990       .  S
O1465      H1478   0.989       .  S
C1466      C1598   1.563       .  S
Zr1489     O1490   2.442       .  S
Zr1489     O1491   2.480       .  S
Zr1489     O1492   2.674       .  S
Zr1489     O1495   2.442       .  S
Zr1489     O1498   2.452       .  S
Zr1489     O1499   2.351       .  S
Zr1489     O1500   2.470       .  S
Zr1489     O1497   2.250       .  S
O1490      H1546   0.990       .  S
O1490      H1554   0.990       .  S
O1491      C1511   1.289       .  A
O1492      C1513   1.335       .  A
O1493     Zr1503   2.584       .  S
O1493      C1512   1.319       .  A
O1494     Zr1502   2.322       .  S
O1494      C1513   1.243       .  A
O1495      C1512   1.293       .  A
O1496     Zr1504   2.371       .  S
O1496      C1511   1.260   1_545  A
O1497     Zr1502   2.302       .  S
O1497     Zr1504   2.341   1_565  S
O1498     Zr1503   2.413       .  S
O1498     Zr1504   2.283   1_565  S
O1498      H1533   0.958       .  S
O1499     Zr1502   2.397       .  S
O1499     Zr1519   2.399       .  S
O1499      H1536   0.961       .  S
O1500     Zr1503   2.448       .  S
O1500     Zr1519   2.394       .  S
Zr1501     O1526   2.423   1_565  S
Zr1501     O1520   2.440       .  S
Zr1501     O1528   2.434       .  S
Zr1501     O1516   2.477       .  S
Zr1501     O1507   2.423       .  S
Zr1501     O1508   2.403       .  S
Zr1501     O1509   2.352       .  S
Zr1501     O1510   2.421       .  S
Zr1502     O1521   2.475       .  S
Zr1502     O1514   2.411       .  S
Zr1502     O1515   2.310       .  S
Zr1502     O1508   2.435       .  S
Zr1502     O1509   2.336       .  S
Zr1503     O1505   2.435       .  S
Zr1503     O1527   2.434       .  S
Zr1503     O1529   2.646       .  S
Zr1503     O1507   2.384       .  S
Zr1503     O1510   2.406       .  S
Zr1504     O1530   2.446       .  S
Zr1504     O1531   2.430       .  S
Zr1504     O1506   2.439       .  S
Zr1504     O1507   2.353   1_545  S
Zr1504     O1508   2.322   1_545  S
O1505      H1542   0.990       .  S
O1506      H1537   0.991       .  S
O1506      H1551   0.985       .  S
O1508      H1534   0.953   1_565  S
O1509     Zr1519   2.352       .  S
O1510     Zr1519   2.380       .  S
O1510      H1535   0.967       .  S
C1511      C1591   1.448   1_565  S
C1512      C2428   1.535       .  S
O1514      H1550   0.983       .  S
O1515      C1517   1.245       .  A
O1516      C1517   1.279       .  A
O1518     Zr1519   2.437       .  S
O1518      H1547   0.989       .  S
Zr1519     O1522   2.439       .  S
Zr1519     O1523   2.441       .  S
Zr1519     O1524   2.438       .  S
O1520      C1525   1.286       .  A
O1521      H1538   0.987       .  S
O1521      H1553   0.991       .  S
O1522      H1539   0.990       .  S
O1523      H1543   0.991       .  S
O1523      H1552   0.990       .  S
O1524      C1525   1.284       .  A
C1525      C1709   1.442       .  S
O1526      H1545   0.987       .  S
O1526      H1549   0.988   1_545  S
O1527      H1541   0.989       .  S
O1527      H1548   0.991       .  S
O1528      C1532   1.277       .  A
O1529      C1532   1.322       .  A
O1530      H1540   0.990       .  S
O1531      H1544   0.990       .  S
Zr1555     O1556   2.432   1_554  S
Zr1555     O1557   2.489       .  S
Zr1555     O1558   2.691       .  S
Zr1555     O1561   2.443       .  S
Zr1555     O1563   2.318       .  S
Zr1555     O1564   2.453       .  S
Zr1555     O1565   2.341       .  S
Zr1555     O1566   2.471       .  S
O1556      H1612   0.991       .  S
O1556      H1620   0.990       .  S
O1557      C1577   1.291   1_554  A
O1558      C1579   1.338       .  A
O1559     Zr1569   2.583       .  S
O1559      C1578   1.320       .  A
O1560     Zr1568   2.311       .  S
O1560      C1579   1.244       .  A
O1561      C1578   1.293       .  A
O1562     Zr1570   2.385       .  S
O1562      C1577   1.260   1_554  A
O1563     Zr1568   2.366       .  S
O1563     Zr1570   2.431       .  S
O1564     Zr1569   2.423       .  S
O1564     Zr1570   2.291       .  S
O1564      H1599   0.961       .  S
O1565     Zr1568   2.416       .  S
O1565     Zr1585   2.384       .  S
O1565      H1602   0.966       .  S
O1566     Zr1569   2.448       .  S
O1566     Zr1585   2.389       .  S
Zr1567     O1592   2.442       .  S
Zr1567     O1586   2.452       .  S
Zr1567     O1594   2.416       .  S
Zr1567     O1582   2.444       .  S
Zr1567     O1573   2.414       .  S
Zr1567     O1574   2.399       .  S
Zr1567     O1575   2.344       .  S
Zr1567     O1576   2.423       .  S
Zr1568     O1587   2.458   1_545  S
Zr1568     O1580   2.432       .  S
Zr1568     O1581   2.304       .  S
Zr1568     O1574   2.435       .  S
Zr1568     O1575   2.333       .  S
Zr1569     O1571   2.435       .  S
Zr1569     O1593   2.437       .  S
Zr1569     O1595   2.666       .  S
Zr1569     O1573   2.383       .  S
Zr1569     O1576   2.396       .  S
Zr1570     O1596   2.439       .  S
Zr1570     O1597   2.426       .  S
Zr1570     O1572   2.434       .  S
Zr1570     O1573   2.359       .  S
Zr1570     O1574   2.368       .  S
O1571      H1608   0.990       .  S
O1572      H1603   0.991       .  S
O1572      H1617   0.985       .  S
O1574      H1600   0.957       .  S
O1575     Zr1585   2.352       .  S
O1576     Zr1585   2.373       .  S
O1576      H1601   0.963       .  S
C1577      C1657   1.455       .  S
C1578      C2572   1.526       .  S
O1580      H1616   0.990       .  S
O1581      C1583   1.242       .  A
O1582      C1583   1.270       .  A
O1584     Zr1585   2.436       .  S
O1584      H1613   0.990       .  S
Zr1585     O1588   2.438       .  S
Zr1585     O1589   2.439       .  S
Zr1585     O1590   2.435       .  S
O1586      C1591   1.291       .  A
O1587      H1604   0.983       .  S
O1587      H1619   0.989       .  S
O1588      H1605   0.990       .  S
O1589      H1609   0.991       .  S
O1589      H1618   0.990       .  S
O1590      C1591   1.285       .  A
O1592      H1611   0.988       .  S
O1592      H1615   0.988       .  S
O1593      H1607   0.989       .  S
O1593      H1614   0.991       .  S
O1594      C1598   1.275       .  A
O1595      C1598   1.329       .  A
O1596      H1606   0.990       .  S
O1597      H1610   0.990       .  S
Zr1621     O1622   2.441       .  S
Zr1621     O1623   2.486       .  S
Zr1621     O1624   2.676       .  S
Zr1621     O1627   2.441       .  S
Zr1621     O1630   2.460       .  S
Zr1621     O1631   2.354       .  S
Zr1621     O1632   2.471       .  S
Zr1621     O1629   2.254       .  S
O1622      H1678   0.990       .  S
O1622      H1686   0.991       .  S
O1623      C1643   1.290       .  A
O1624      C1645   1.336       .  A
O1625     Zr1635   2.575       .  S
O1625      C1644   1.318       .  A
O1626     Zr1634   2.316       .  S
O1626      C1645   1.244       .  A
O1627      C1644   1.293       .  A
O1628     Zr1636   2.383       .  S
O1628      C1643   1.257   1_565  A
O1629     Zr1634   2.304       .  S
O1629     Zr1636   2.334   1_545  S
O1630     Zr1635   2.414       .  S
O1630     Zr1636   2.283   1_545  S
O1630      H1665   0.958       .  S
O1631     Zr1634   2.388       .  S
O1631     Zr1651   2.395       .  S
O1631      H1668   0.966       .  S
O1632     Zr1635   2.447       .  S
O1632     Zr1651   2.389       .  S
Zr1633     O1658   2.415   1_545  S
Zr1633     O1652   2.458       .  S
Zr1633     O1660   2.431       .  S
Zr1633     O1648   2.470       .  S
Zr1633     O1639   2.424       .  S
Zr1633     O1640   2.408       .  S
Zr1633     O1641   2.348       .  S
Zr1633     O1642   2.415       .  S
Zr1634     O1653   2.475       .  S
Zr1634     O1646   2.418       .  S
Zr1634     O1647   2.319       .  S
Zr1634     O1640   2.435       .  S
Zr1634     O1641   2.335       .  S
Zr1635     O1637   2.435       .  S
Zr1635     O1659   2.436       .  S
Zr1635     O1661   2.652       .  S
Zr1635     O1639   2.389       .  S
Zr1635     O1642   2.401       .  S
Zr1636     O1662   2.443       .  S
Zr1636     O1663   2.427       .  S
Zr1636     O1638   2.442       .  S
Zr1636     O1639   2.359   1_565  S
Zr1636     O1640   2.334   1_565  S
O1637      H1674   0.990       .  S
O1638      H1669   0.991       .  S
O1638      H1683   0.984       .  S
O1640      H1666   0.955   1_545  S
O1641     Zr1651   2.350       .  S
O1642     Zr1651   2.384       .  S
O1642      H1667   0.965       .  S
C1643      C1723   1.453   1_545  S
C1644      C2476   1.517       .  S
O1646      H1682   0.979       .  S
O1647      C1649   1.244       .  A
O1648      C1649   1.280       .  A
O1650     Zr1651   2.437       .  S
O1650      H1679   0.990       .  S
Zr1651     O1654   2.438       .  S
Zr1651     O1655   2.441       .  S
Zr1651     O1656   2.440       .  S
O1652      C1657   1.289       .  A
O1653      H1670   0.983       .  S
O1653      H1685   0.992       .  S
O1654      H1671   0.990       .  S
O1655      H1675   0.990       .  S
O1655      H1684   0.990       .  S
O1656      C1657   1.285       .  A
O1658      H1677   0.984       .  S
O1658      H1681   0.983   1_566  S
O1659      H1673   0.989       .  S
O1659      H1680   0.991       .  S
O1660      C1664   1.280       .  A
O1661      C1664   1.324       .  A
O1662      H1672   0.991       .  S
O1663      H1676   0.992       .  S
Zr1687     O1688   2.433       .  S
Zr1687     O1689   2.466       .  S
Zr1687     O1690   2.678       .  S
Zr1687     O1693   2.430       .  S
Zr1687     O1695   2.336       .  S
Zr1687     O1696   2.461       .  S
Zr1687     O1697   2.345       .  S
Zr1687     O1698   2.466       .  S
O1688      H1744   0.991       .  S
O1688      H1752   0.989       .  S
O1689      C1709   1.286       .  A
O1690      C1711   1.337       .  A
O1691     Zr1701   2.577       .  S
O1691      C1710   1.318       .  A
O1692     Zr1700   2.305       .  S
O1692      C1711   1.246       .  A
O1693      C1710   1.291       .  A
O1694     Zr1702   2.387       .  S
O1694      C1709   1.257       .  A
O1695     Zr1700   2.376       .  S
O1695     Zr1702   2.425       .  S
O1696     Zr1701   2.416       .  S
O1696     Zr1702   2.289       .  S
O1696      H1731   0.958       .  S
O1697     Zr1700   2.404       .  S
O1697     Zr1717   2.390       .  S
O1697      H1734   0.960       .  S
O1698     Zr1701   2.450       .  S
O1698     Zr1717   2.388       .  S
Zr1699     O1724   2.417       .  S
Zr1699     O1718   2.456       .  S
Zr1699     O1726   2.424       .  S
Zr1699     O1714   2.456       .  S
Zr1699     O1705   2.430       .  S
Zr1699     O1706   2.413       .  S
Zr1699     O1707   2.345       .  S
Zr1699     O1708   2.418       .  S
Zr1700     O1719   2.460   1_565  S
Zr1700     O1712   2.433       .  S
Zr1700     O1713   2.308       .  S
Zr1700     O1706   2.436       .  S
Zr1700     O1707   2.332       .  S
Zr1701     O1703   2.434       .  S
Zr1701     O1725   2.439       .  S
Zr1701     O1727   2.648       .  S
Zr1701     O1705   2.398       .  S
Zr1701     O1708   2.408       .  S
Zr1702     O1728   2.434       .  S
Zr1702     O1729   2.410       .  S
Zr1702     O1704   2.447       .  S
Zr1702     O1705   2.365       .  S
Zr1702     O1706   2.339       .  S
O1703      H1740   0.990       .  S
O1704      H1735   0.990       .  S
O1704      H1749   0.987       .  S
O1706      H1732   0.957       .  S
O1707     Zr1717   2.348       .  S
O1708     Zr1717   2.382       .  S
O1708      H1733   0.963       .  S
C1710      C2377   1.515       .  S
O1712      H1748   0.988       .  S
O1713      C1715   1.241       .  A
O1714      C1715   1.275       .  A
O1716     Zr1717   2.436       .  S
O1716      H1745   0.990       .  S
Zr1717     O1720   2.436       .  S
Zr1717     O1721   2.439       .  S
Zr1717     O1722   2.448       .  S
O1718      C1723   1.287       .  A
O1719      H1736   0.990       .  S
O1719      H1751   0.985       .  S
O1720      H1737   0.991       .  S
O1721      H1741   0.990       .  S
O1721      H1750   0.990       .  S
O1722      C1723   1.286       .  A
O1724      H1743   0.983       .  S
O1724      H1747   0.982       .  S
O1725      H1739   0.989       .  S
O1725      H1746   0.991       .  S
O1726      C1730   1.275       .  A
O1727      C1730   1.323       .  A
O1728      H1738   0.990       .  S
O1729      H1742   0.991       .  S
Zr1753     O1754   2.439       .  S
Zr1753     O1755   2.488       .  S
Zr1753     O1756   2.442       .  S
Zr1753     O1759   2.608       .  S
Zr1753     O1761   2.430       .  S
Zr1753     O1762   2.406       .  S
Zr1753     O1763   2.484       .  S
Zr1753     O1764   2.411       .  S
O1754      H1810   0.990       .  S
O1754      H1818   0.990       .  S
O1755      C1775   1.292       .  A
O1756      C1777   1.288       .  A
O1757     Zr1767   2.343       .  S
O1757      C1776   1.255       .  A
O1758     Zr1766   2.543       .  S
O1758      C1777   1.309       .  A
O1759      C1776   1.318       .  A
O1760     Zr1768   2.369       .  S
O1760      C1775   1.255       .  A
O1761     Zr1766   2.418       .  S
O1761     Zr1768   2.289       .  S
O1762     Zr1767   2.403       .  S
O1762     Zr1768   2.442       .  S
O1762      H1797   0.966       .  S
O1763     Zr1766   2.463       .  S
O1763     Zr1783   2.425       .  S
O1763      H1800   0.961       .  S
O1764     Zr1767   2.361       .  S
O1764     Zr1783   2.441       .  S
Zr1765     O1790   2.449       .  S
Zr1765     O1784   2.430       .  S
Zr1765     O1792   2.383       .  S
Zr1765     O1780   2.434       .  S
Zr1765     O1771   2.355       .  S
Zr1765     O1772   2.384       .  S
Zr1765     O1773   2.372       .  S
Zr1765     O1774   2.439       .  S
Zr1766     O1785   2.435       .  S
Zr1766     O1778   2.435       .  S
Zr1766     O1779   2.630       .  S
Zr1766     O1772   2.395       .  S
Zr1766     O1773   2.406       .  S
Zr1767     O1769   2.441       .  S
Zr1767     O1791   2.434       .  S
Zr1767     O1793   2.295       .  S
Zr1767     O1771   2.400       .  S
Zr1767     O1774   2.315       .  S
Zr1768     O1794   2.409       .  S
Zr1768     O1795   2.406       .  S
Zr1768     O1770   2.446       .  S
Zr1768     O1771   2.380       .  S
Zr1768     O1772   2.357       .  S
O1769      H1806   0.990       .  S
O1770      H1801   0.989       .  S
O1770      H1815   0.990       .  S
O1772      H1798   0.965       .  S
O1773     Zr1783   2.404       .  S
O1774     Zr1783   2.366       .  S
O1774      H1799   0.957       .  S
C1775      C1921   1.468       .  S
C1776      C2106   1.528       .  S
C1777      C2740   1.519       .  S
O1778      H1814   0.990       .  S
O1779      C1781   1.318       .  A
O1780      C1781   1.280       .  A
C1781      C2243   1.557       .  S
O1782     Zr1783   2.440       .  S
O1782      H1811   0.990       .  S
Zr1783     O1786   2.437       .  S
Zr1783     O1787   2.438       .  S
Zr1783     O1788   2.499       .  S
O1784      C1789   1.290       .  A
O1785      H1802   0.990       .  S
O1785      H1817   0.991       .  S
O1786      H1803   0.990       .  S
O1787      H1807   0.990       .  S
O1787      H1816   0.991       .  S
O1788      C1789   1.297       .  A
C1789      C1841   1.460       .  S
O1790      H1809   0.988       .  S
O1790      H1813   0.984       .  S
O1791      H1805   0.990       .  S
O1791      H1812   0.972       .  S
O1792      C1796   1.247       .  A
O1793      C1796   1.242       .  A
O1794      H1804   0.990       .  S
O1795      H1808   0.986       .  S
C1796      C2192   1.428       .  S
Zr1819     O1820   2.436       .  S
Zr1819     O1821   2.478       .  S
Zr1819     O1822   2.428       .  S
Zr1819     O1825   2.591       .  S
Zr1819     O1827   2.428       .  S
Zr1819     O1828   2.394       .  S
Zr1819     O1829   2.471       .  S
Zr1819     O1830   2.399       .  S
O1820      H1876   0.991       .  S
O1820      H1884   0.989       .  S
O1821      C1841   1.288       .  A
O1822      C1843   1.289       .  A
O1823     Zr1833   2.361       .  S
O1823      C1842   1.259       .  A
O1824     Zr1832   2.543       .  S
O1824      C1843   1.309       .  A
O1825      C1842   1.316       .  A
O1826     Zr1834   2.368       .  S
O1826      C1841   1.253       .  A
O1827     Zr1832   2.412       .  S
O1827     Zr1834   2.294       .  S
O1828     Zr1833   2.378       .  S
O1828     Zr1834   2.430       .  S
O1828      H1863   0.961       .  S
O1829     Zr1832   2.460       .  S
O1829     Zr1849   2.422       .  S
O1829      H1866   0.960       .  S
O1830     Zr1833   2.359       .  S
O1830     Zr1849   2.425       .  S
Zr1831     O1856   2.437       .  S
Zr1831     O1850   2.487       .  S
Zr1831     O1858   2.436       .  S
Zr1831     O1846   2.460       .  S
Zr1831     O1838   2.385       .  S
Zr1831     O1839   2.374       .  S
Zr1831     O1840   2.420       .  S
Zr1831     O1837   2.284       .  S
Zr1832     O1851   2.433       .  S
Zr1832     O1844   2.431       .  S
Zr1832     O1845   2.603       .  S
Zr1832     O1838   2.412       .  S
Zr1832     O1839   2.422       .  S
Zr1833     O1835   2.452       .  S
Zr1833     O1857   2.450       .  S
Zr1833     O1859   2.307       .  S
Zr1833     O1840   2.305       .  S
Zr1833     O1837   2.316       .  S
Zr1834     O1860   2.414       .  S
Zr1834     O1861   2.433       .  S
Zr1834     O1836   2.463       .  S
Zr1834     O1838   2.342       .  S
Zr1834     O1837   2.322       .  S
O1835      H1872   0.990       .  S
O1836      H1867   0.991       .  S
O1836      H1881   0.990       .  S
O1838      H1864   0.963       .  S
O1839     Zr1849   2.412       .  S
O1840     Zr1849   2.381       .  S
O1840      H1865   0.963       .  S
C1842      C2172   1.520       .  S
C1843      C2368   1.527       .  S
O1844      H1880   0.990       .  S
O1845      C1847   1.309       .  A
O1846      C1847   1.282       .  A
C1847      C2045   1.553       .  S
O1848     Zr1849   2.437       .  S
O1848      H1877   0.990       .  S
Zr1849     O1852   2.434       .  S
Zr1849     O1853   2.438       .  S
Zr1849     O1854   2.459       .  S
O1850      C1855   1.298       .  A
O1851      H1868   0.990       .  S
O1851      H1883   0.990       .  S
O1852      H1869   0.990       .  S
O1853      H1873   0.990       .  S
O1853      H1882   0.991       .  S
O1854      C1855   1.287       .  A
C1855      C1973   1.468       .  S
O1856      H1875   0.984       .  S
O1856      H1879   0.985       .  S
O1857      H1871   0.990       .  S
O1857      H1878   0.977       .  S
O1858      C1862   1.255       .  A
O1859      C1862   1.247       .  A
O1860      H1870   0.990       .  S
O1861      H1874   0.990       .  S
C1862      C2258   1.445       .  S
Zr1885     O1886   2.441   1_554  S
Zr1885     O1887   2.519       .  S
Zr1885     O1888   2.463       .  S
Zr1885     O1891   2.618       .  S
Zr1885     O1893   2.426       .  S
Zr1885     O1894   2.375       .  S
Zr1885     O1895   2.496       .  S
Zr1885     O1896   2.345       .  S
O1886      H1942   0.991       .  S
O1886      H1950   0.990       .  S
O1887      C1907   1.294       .  A
O1888      C1909   1.294       .  A
O1889     Zr1899   2.325       .  S
O1889      C1908   1.248       .  A
O1890     Zr1898   2.531       .  S
O1890      C1909   1.307       .  A
O1891      C1908   1.322       .  A
O1892     Zr1900   2.352       .  S
O1892      C1907   1.249       .  A
O1893     Zr1898   2.418       .  S
O1893     Zr1900   2.300       .  S
O1894     Zr1899   2.414       .  S
O1894     Zr1900   2.451       .  S
O1894      H1929   0.961       .  S
O1895     Zr1898   2.458       .  S
O1895     Zr1915   2.453       .  S
O1895      H1932   0.969       .  S
O1896     Zr1899   2.242       .  S
O1896     Zr1915   2.359       .  S
Zr1897     O1922   2.454       .  S
Zr1897     O1916   2.428       .  S
Zr1897     O1924   2.410       .  S
Zr1897     O1912   2.468       .  S
Zr1897     O1903   2.340       .  S
Zr1897     O1904   2.369       .  S
Zr1897     O1905   2.374       .  S
Zr1897     O1906   2.409       .  S
Zr1898     O1917   2.435       .  S
Zr1898     O1910   2.435       .  S
Zr1898     O1911   2.599       .  S
Zr1898     O1904   2.414       .  S
Zr1898     O1905   2.417       .  S
Zr1899     O1901   2.446       .  S
Zr1899     O1923   2.451       .  S
Zr1899     O1925   2.285       .  S
Zr1899     O1903   2.410       .  S
Zr1899     O1906   2.280       .  S
Zr1900     O1926   2.415       .  S
Zr1900     O1927   2.413       .  S
Zr1900     O1902   2.446       .  S
Zr1900     O1903   2.394       .  S
Zr1900     O1904   2.346       .  S
O1901      H1938   0.992       .  S
O1902      H1933   0.990       .  S
O1902      H1947   0.990       .  S
O1904      H1930   0.963       .  S
O1905     Zr1915   2.399       .  S
O1906     Zr1915   2.380       .  S
O1906      H1931   0.958       .  S
C1907      C1987   1.472   1_554  S
C1908      C2040   1.521   1_554  S
C1909      C2620   1.523   1_554  S
O1910      H1946   0.991       .  S
O1911      C1913   1.308       .  A
O1912      C1913   1.280       .  A
C1913      C2177   1.560       .  S
O1914     Zr1915   2.444       .  S
O1914      H1943   0.991       .  S
Zr1915     O1918   2.445       .  S
Zr1915     O1919   2.442       .  S
Zr1915     O1920   2.533       .  S
O1916      C1921   1.288       .  A
O1917      H1934   0.990       .  S
O1917      H1949   0.990       .  S
O1918      H1935   0.991       .  S
O1919      H1939   0.990       .  S
O1919      H1948   0.990       .  S
O1920      C1921   1.303       .  A
O1922      H1941   0.986       .  S
O1922      H1945   0.984       .  S
O1923      H1937   0.990       .  S
O1923      H1944   0.987       .  S
O1924      C1928   1.260       .  A
O1925      C1928   1.249       .  A
O1926      H1936   0.990       .  S
O1927      H1940   0.986       .  S
C1928      C2126   1.438       .  S
Zr1951     O1952   2.437       .  S
Zr1951     O1953   2.472       .  S
Zr1951     O1954   2.436       .  S
Zr1951     O1957   2.601       .  S
Zr1951     O1959   2.428       .  S
Zr1951     O1960   2.396       .  S
Zr1951     O1961   2.479       .  S
Zr1951     O1962   2.379       .  S
O1952      H2008   0.989       .  S
O1952      H2016   0.991       .  S
O1953      C1973   1.283       .  A
O1954      C1975   1.286       .  A
O1955     Zr1965   2.359       .  S
O1955      C1974   1.253       .  A
O1956     Zr1964   2.555       .  S
O1956      C1975   1.311       .  A
O1957      C1974   1.316       .  A
O1958     Zr1966   2.381       .  S
O1958      C1973   1.256       .  A
O1959     Zr1964   2.405       .  S
O1959     Zr1966   2.304       .  S
O1960     Zr1965   2.386       .  S
O1960     Zr1966   2.438       .  S
O1960      H1995   0.960       .  S
O1961     Zr1964   2.459       .  S
O1961     Zr1981   2.404       .  S
O1961      H1998   0.972       .  S
O1962     Zr1965   2.400       .  S
O1962     Zr1981   2.438       .  S
Zr1963     O1988   2.445       .  S
Zr1963     O1982   2.453       .  S
Zr1963     O1990   2.386       .  S
Zr1963     O1978   2.424       .  S
Zr1963     O1970   2.409       .  S
Zr1963     O1971   2.395       .  S
Zr1963     O1972   2.414       .  S
Zr1963     O1969   2.308       .  S
Zr1964     O1983   2.434       .  S
Zr1964     O1976   2.434       .  S
Zr1964     O1977   2.651       .  S
Zr1964     O1970   2.380       .  S
Zr1964     O1971   2.390       .  S
Zr1965     O1967   2.452       .  S
Zr1965     O1989   2.429       .  S
Zr1965     O1991   2.357       .  S
Zr1965     O1972   2.295       .  S
Zr1965     O1969   2.337       .  S
Zr1966     O1992   2.440       .  S
Zr1966     O1993   2.434       .  S
Zr1966     O1968   2.462       .  S
Zr1966     O1970   2.353       .  S
Zr1966     O1969   2.320       .  S
O1967      H2004   0.991       .  S
O1968      H1999   0.990       .  S
O1968      H2013   0.989       .  S
O1970      H1996   0.964       .  S
O1971     Zr1981   2.375       .  S
O1972     Zr1981   2.318       .  S
O1972      H1997   0.967       .  S
C1974      C2238   1.528       .  S
C1975      C2644   1.520       .  S
O1976      H2012   0.991       .  S
O1977      C1979   1.321   1_556  A
O1978      C1979   1.274   1_556  A
C1979      C2111   1.558       .  S
O1980     Zr1981   2.438       .  S
O1980      H2009   0.991       .  S
Zr1981     O1984   2.435       .  S
Zr1981     O1985   2.437       .  S
Zr1981     O1986   2.509       .  S
O1982      C1987   1.289       .  A
O1983      H2000   0.991       .  S
O1983      H2015   0.990       .  S
O1984      H2001   0.990       .  S
O1985      H2005   0.990       .  S
O1985      H2014   0.990       .  S
O1986      C1987   1.301       .  A
O1988      H2007   0.984       .  S
O1988      H2011   0.986       .  S
O1989      H2003   0.983       .  S
O1989      H2010   0.979       .  S
O1990      C1994   1.257       .  A
O1991      C1994   1.232       .  A
O1992      H2002   0.993       .  S
O1993      H2006   0.991       .  S
C1994      C2060   1.419       .  S
Zr2017     O2018   2.438   1_556  S
Zr2017     O2019   2.480   1_556  S
Zr2017     O2020   2.440       .  S
Zr2017     O2023   2.623   1_556  S
Zr2017     O2025   2.428       .  S
Zr2017     O2026   2.383       .  S
Zr2017     O2027   2.480       .  S
Zr2017     O2028   2.372       .  S
O2018      H2074   0.990       .  S
O2018      H2082   0.991   1_554  S
O2019      C2039   1.286       .  A
O2020      C2041   1.286       .  A
O2021     Zr2031   2.332       .  S
O2021      C2040   1.251       .  A
O2022     Zr2030   2.552       .  S
O2022      C2041   1.311       .  A
O2023      C2040   1.322   1_554  A
O2024     Zr2032   2.385       .  S
O2024      C2039   1.257   1_556  A
O2025     Zr2030   2.395       .  S
O2025     Zr2032   2.299       .  S
O2026     Zr2031   2.382       .  S
O2026     Zr2032   2.425       .  S
O2026      H2061   0.962       .  S
O2027     Zr2030   2.462       .  S
O2027     Zr2047   2.405       .  S
O2027      H2064   0.972       .  S
O2028     Zr2031   2.393       .  S
O2028     Zr2047   2.425       .  S
Zr2029     O2054   2.438       .  S
Zr2029     O2048   2.455       .  S
Zr2029     O2056   2.394       .  S
Zr2029     O2044   2.427       .  S
Zr2029     O2036   2.409       .  S
Zr2029     O2037   2.397       .  S
Zr2029     O2038   2.418       .  S
Zr2029     O2035   2.299       .  S
Zr2030     O2049   2.435       .  S
Zr2030     O2042   2.435       .  S
Zr2030     O2043   2.638       .  S
Zr2030     O2036   2.381       .  S
Zr2030     O2037   2.394       .  S
Zr2031     O2033   2.451       .  S
Zr2031     O2055   2.423       .  S
Zr2031     O2057   2.345       .  S
Zr2031     O2038   2.302       .  S
Zr2031     O2035   2.317       .  S
Zr2032     O2058   2.443       .  S
Zr2032     O2059   2.389       .  S
Zr2032     O2034   2.454       .  S
Zr2032     O2036   2.358       .  S
Zr2032     O2035   2.294       .  S
O2033      H2070   0.991       .  S
O2034      H2065   0.990       .  S
O2034      H2079   0.991       .  S
O2036      H2062   0.961       .  S
O2037     Zr2047   2.387       .  S
O2038     Zr2047   2.336       .  S
O2038      H2063   0.959       .  S
C2039      C2119   1.471       .  S
C2041      C2353   1.517       .  S
O2042      H2078   0.990       .  S
O2043      C2045   1.321       .  A
O2044      C2045   1.280       .  A
O2046     Zr2047   2.438       .  S
O2046      H2075   0.989       .  S
Zr2047     O2050   2.437       .  S
Zr2047     O2051   2.437       .  S
Zr2047     O2052   2.489       .  S
O2048      C2053   1.292       .  A
O2049      H2066   0.990       .  S
O2049      H2081   0.990       .  S
O2050      H2067   0.990       .  S
O2051      H2071   0.990       .  S
O2051      H2080   0.990       .  S
O2052      C2053   1.296       .  A
C2053      C2237   1.464       .  S
O2054      H2073   0.988       .  S
O2054      H2077   0.988       .  S
O2055      H2069   0.987   1_556  S
O2055      H2076   0.977       .  S
O2056      C2060   1.259       .  A
O2057      C2060   1.238       .  A
O2058      H2068   0.991       .  S
O2059      H2072   0.988       .  S
Zr2083     O2084   2.436       .  S
Zr2083     O2085   2.453       .  S
Zr2083     O2086   2.442       .  S
Zr2083     O2089   2.608       .  S
Zr2083     O2091   2.429       .  S
Zr2083     O2092   2.397       .  S
Zr2083     O2093   2.464       .  S
Zr2083     O2094   2.369       .  S
O2084      H2140   0.991       .  S
O2084      H2148   0.990       .  S
O2085      C2105   1.281       .  A
O2086      C2107   1.292       .  A
O2087     Zr2097   2.367       .  S
O2087      C2106   1.257       .  A
O2088     Zr2096   2.544       .  S
O2088      C2107   1.310       .  A
O2089      C2106   1.321       .  A
O2090     Zr2098   2.384       .  S
O2090      C2105   1.257       .  A
O2091     Zr2096   2.395       .  S
O2091     Zr2098   2.306       .  S
O2092     Zr2097   2.378       .  S
O2092     Zr2098   2.436       .  S
O2092      H2127   0.961       .  S
O2093     Zr2096   2.458       .  S
O2093     Zr2113   2.403       .  S
O2093      H2130   0.969       .  S
O2094     Zr2097   2.393       .  S
O2094     Zr2113   2.418       .  S
Zr2095     O2120   2.429       .  S
Zr2095     O2114   2.485       .  S
Zr2095     O2122   2.414       .  S
Zr2095     O2110   2.473       .  S
Zr2095     O2102   2.408       .  S
Zr2095     O2103   2.397       .  S
Zr2095     O2104   2.407       .  S
Zr2095     O2101   2.324       .  S
Zr2096     O2115   2.435       .  S
Zr2096     O2108   2.434       .  S
Zr2096     O2109   2.601       .  S
Zr2096     O2102   2.413       .  S
Zr2096     O2103   2.412       .  S
Zr2097     O2099   2.450       .  S
Zr2097     O2121   2.458       .  S
Zr2097     O2123   2.361       .  S
Zr2097     O2104   2.322       .  S
Zr2097     O2101   2.338       .  S
Zr2098     O2124   2.438       .  S
Zr2098     O2125   2.453       .  S
Zr2098     O2100   2.459       .  S
Zr2098     O2102   2.354       .  S
Zr2098     O2101   2.323       .  S
O2099      H2136   0.991       .  S
O2100      H2131   0.989       .  S
O2100      H2145   0.990       .  S
O2102      H2128   0.961       .  S
O2103     Zr2113   2.391       .  S
O2104     Zr2113   2.358       .  S
O2104      H2129   0.957       .  S
C2105      C2185   1.458       .  S
C2107      C2665   1.526       .  S
O2108      H2144   0.990       .  S
O2109      C2111   1.310       .  A
O2110      C2111   1.284       .  A
O2112     Zr2113   2.438       .  S
O2112      H2141   0.990       .  S
Zr2113     O2116   2.436       .  S
Zr2113     O2117   2.437       .  S
Zr2113     O2118   2.457       .  S
O2114      C2119   1.296       .  A
O2115      H2132   0.990       .  S
O2115      H2147   0.990       .  S
O2116      H2133   0.990       .  S
O2117      H2137   0.991       .  S
O2117      H2146   0.991       .  S
O2118      C2119   1.287       .  A
O2120      H2139   0.984       .  S
O2120      H2143   0.979       .  S
O2121      H2135   0.989       .  S
O2121      H2142   0.980       .  S
O2122      C2126   1.257       .  A
O2123      C2126   1.243       .  A
O2124      H2134   0.991       .  S
O2125      H2138   0.989       .  S
Zr2149     O2150   2.438       .  S
Zr2149     O2151   2.460       .  S
Zr2149     O2152   2.429       .  S
Zr2149     O2155   2.602       .  S
Zr2149     O2157   2.437       .  S
Zr2149     O2158   2.398       .  S
Zr2149     O2159   2.470       .  S
Zr2149     O2160   2.363       .  S
O2150      H2206   0.989       .  S
O2150      H2214   0.991       .  S
O2151      C2171   1.283       .  A
O2152      C2173   1.285       .  A
O2153     Zr2163   2.363       .  S
O2153      C2172   1.255       .  A
O2154     Zr2162   2.561       .  S
O2154      C2173   1.312       .  A
O2155      C2172   1.317       .  A
O2156     Zr2164   2.389       .  S
O2156      C2171   1.259       .  A
O2157     Zr2162   2.406       .  S
O2157     Zr2164   2.307       .  S
O2158     Zr2163   2.375       .  S
O2158     Zr2164   2.439       .  S
O2158      H2193   0.962       .  S
O2159     Zr2162   2.459       .  S
O2159     Zr2179   2.395       .  S
O2159      H2196   0.961       .  S
O2160     Zr2163   2.391       .  S
O2160     Zr2179   2.414       .  S
Zr2161     O2186   2.405       .  S
Zr2161     O2180   2.472       .  S
Zr2161     O2188   2.415       .  S
Zr2161     O2176   2.436       .  S
Zr2161     O2168   2.410       .  S
Zr2161     O2169   2.394       .  S
Zr2161     O2170   2.410       .  S
Zr2161     O2167   2.314       .  S
Zr2162     O2181   2.434       .  S
Zr2162     O2174   2.438       .  S
Zr2162     O2175   2.640       .  S
Zr2162     O2168   2.390       .  S
Zr2162     O2169   2.395       .  S
Zr2163     O2165   2.451       .  S
Zr2163     O2187   2.443       .  S
Zr2163     O2189   2.343       .  S
Zr2163     O2170   2.306       .  S
Zr2163     O2167   2.336       .  S
Zr2164     O2190   2.428       .  S
Zr2164     O2191   2.447       .  S
Zr2164     O2166   2.459       .  S
Zr2164     O2168   2.367       .  S
Zr2164     O2167   2.313       .  S
O2165      H2202   0.991       .  S
O2166      H2197   0.991       .  S
O2166      H2211   0.988       .  S
O2168      H2194   0.961       .  S
O2169     Zr2179   2.384       .  S
O2170     Zr2179   2.357       .  S
O2170      H2195   0.969       .  S
C2171      C2251   1.465       .  S
C2173      C2584   1.524       .  S
O2174      H2210   0.991       .  S
O2175      C2177   1.320       .  A
O2176      C2177   1.277       .  A
O2178     Zr2179   2.439       .  S
O2178      H2207   0.990       .  S
Zr2179     O2182   2.437       .  S
Zr2179     O2183   2.439       .  S
Zr2179     O2184   2.455       .  S
O2180      C2185   1.296       .  A
O2181      H2198   0.991       .  S
O2181      H2213   0.989       .  S
O2182      H2199   0.990       .  S
O2183      H2203   0.991       .  S
O2183      H2212   0.990       .  S
O2184      C2185   1.288       .  A
O2186      H2205   0.989       .  S
O2186      H2209   0.983       .  S
O2187      H2201   0.986       .  S
O2187      H2208   0.980       .  S
O2188      C2192   1.254       .  A
O2189      C2192   1.241       .  A
O2190      H2200   0.991       .  S
O2191      H2204   0.989       .  S
Zr2215     O2216   2.446       .  S
Zr2215     O2217   2.479       .  S
Zr2215     O2218   2.434       .  S
Zr2215     O2221   2.610       .  S
Zr2215     O2224   2.405       .  S
Zr2215     O2225   2.472       .  S
Zr2215     O2226   2.403       .  S
Zr2215     O2223   2.345       .  S
O2216      H2272   0.990       .  S
O2216      H2280   0.990       .  S
O2217      C2237   1.286       .  A
O2218      C2239   1.289       .  A
O2219     Zr2229   2.358       .  S
O2219      C2238   1.259       .  A
O2220     Zr2228   2.535       .  S
O2220      C2239   1.308       .  A
O2221      C2238   1.320       .  A
O2222     Zr2230   2.347       .  S
O2222      C2237   1.251       .  A
O2223     Zr2228   2.324       .  S
O2223     Zr2230   2.216       .  S
O2224     Zr2229   2.386       .  S
O2224     Zr2230   2.439       .  S
O2224      H2259   0.958       .  S
O2225     Zr2228   2.457       .  S
O2225     Zr2245   2.412       .  S
O2225      H2262   0.958       .  S
O2226     Zr2229   2.366       .  S
O2226     Zr2245   2.435       .  S
Zr2227     O2252   2.432       .  S
Zr2227     O2246   2.479       .  S
Zr2227     O2254   2.447       .  S
Zr2227     O2242   2.442       .  S
Zr2227     O2233   2.350       .  S
Zr2227     O2234   2.392       .  S
Zr2227     O2235   2.379       .  S
Zr2227     O2236   2.420       .  S
Zr2228     O2247   2.442       .  S
Zr2228     O2240   2.439       .  S
Zr2228     O2241   2.627       .  S
Zr2228     O2234   2.405       .  S
Zr2228     O2235   2.416       .  S
Zr2229     O2231   2.442       .  S
Zr2229     O2253   2.438       .  S
Zr2229     O2255   2.307       .  S
Zr2229     O2233   2.385       .  S
Zr2229     O2236   2.313       .  S
Zr2230     O2256   2.417       .  S
Zr2230     O2257   2.434       .  S
Zr2230     O2232   2.448       .  S
Zr2230     O2233   2.399       .  S
Zr2230     O2234   2.352       .  S
O2231      H2268   0.990       .  S
O2232      H2263   0.991       .  S
O2232      H2277   0.989       .  S
O2234      H2260   0.962       .  S
O2235     Zr2245   2.410       .  S
O2236     Zr2245   2.395       .  S
O2236      H2261   0.953       .  S
C2239      C2716   1.520       .  S
O2240      H2276   0.990       .  S
O2241      C2243   1.316       .  A
O2242      C2243   1.277       .  A
O2244     Zr2245   2.441       .  S
O2244      H2273   0.990       .  S
Zr2245     O2248   2.439       .  S
Zr2245     O2249   2.440       .  S
Zr2245     O2250   2.447       .  S
O2246      C2251   1.298       .  A
O2247      H2264   0.991       .  S
O2247      H2279   0.990       .  S
O2248      H2265   0.990       .  S
O2249      H2269   0.991       .  S
O2249      H2278   0.990       .  S
O2250      C2251   1.284       .  A
O2252      H2271   0.982       .  S
O2252      H2275   0.986       .  S
O2253      H2267   0.989       .  S
O2253      H2274   0.978       .  S
O2254      C2258   1.256       .  A
O2255      C2258   1.246       .  A
O2256      H2266   0.991       .  S
O2257      H2270   0.990       .  S
C2281      N2282   1.365       .  A
C2281      N2286   1.380       .  A
C2281      C2380   1.508       .  S
N2282      C2283   1.361       .  A
C2283      N2284   1.356       .  A
C2283      C2341   1.492       .  S
N2284      C2285   1.356       .  A
C2285      N2286   1.375       .  A
C2285      C2329   1.510       .  S
C2287      N2288   1.380       .  A
C2287      N2292   1.365       .  A
C2287      C2392   1.513       .  S
N2288      C2289   1.376       .  A
C2289      N2290   1.356       .  A
C2289      C2332   1.508       .  S
N2290      C2291   1.357       .  A
C2291      N2292   1.361       .  A
C2291      C2320   1.496       .  S
C2293      N2294   1.369       .  A
C2293      N2298   1.377       .  A
C2293      C2365   1.515       .  S
N2294      C2295   1.365       .  A
C2295      N2296   1.357       .  A
C2295      C2344   1.493       .  S
N2296      C2297   1.353       .  A
C2297      N2298   1.367       .  A
C2297      C2305   1.499       .  S
C2299      N2300   1.371       .  A
C2299      N2304   1.377       .  A
C2299      C2356   1.518       .  S
N2300      C2301   1.366       .  A
C2301      N2302   1.353       .  A
C2301      C2317   1.497       .  S
N2302      C2303   1.350       .  A
C2303      N2304   1.368       .  A
C2303      C2308   1.495       .  S
C2305      C2306   1.410       .  A
C2305      C2310   1.414       .  A
C2306      C2307   1.417       .  A
C2306      H2311   1.084       .  S
C2307      C2308   1.414       .  A
C2307      C2314   1.443       .  S
C2308      C2309   1.404       .  A
C2309      C2310   1.407       .  A
C2309      H2312   1.085       .  S
C2310      C2313   1.443       .  S
C2313      N2315   1.157       .  T
C2314      N2316   1.157       .  T
C2317      C2318   1.408       .  A
C2317      C2322   1.419       .  A
C2318      C2319   1.412       .  A
C2318      H2323   1.084       .  S
C2319      C2320   1.417       .  A
C2319      C2326   1.443       .  S
C2320      C2321   1.403       .  A
C2321      C2322   1.399       .  A
C2321      H2324   1.085       .  S
C2322      C2325   1.446       .  S
C2325      N2327   1.157       .  T
C2326      N2328   1.157       .  T
C2329      C2330   1.411       .  A
C2329      C2334   1.417       .  A
C2330      C2331   1.422       .  A
C2330      H2335   1.084       .  S
C2331      C2332   1.418       .  A
C2331      C2338   1.442       .  S
C2332      C2333   1.406       .  A
C2333      C2334   1.410       .  A
C2333      H2336   1.085       .  S
C2334      C2337   1.444       .  S
C2337      N2339   1.157       .  T
C2338      N2340   1.157       .  T
C2341      C2342   1.403       .  A
C2341      C2346   1.416       .  A
C2342      C2343   1.398       .  A
C2342      H2347   1.085       .  S
C2343      C2344   1.415       .  A
C2343      C2350   1.445       .  S
C2344      C2345   1.408       .  A
C2345      C2346   1.412       .  A
C2345      H2348   1.084       .  S
C2346      C2349   1.442       .  S
C2349      N2351   1.157       .  T
C2350      N2352   1.157       .  T
C2353      C2354   1.414   1_556  A
C2353      C2358   1.414       .  A
C2354      C2355   1.407       .  A
C2354      H2359   1.084       .  S
C2355      C2356   1.416       .  A
C2355      C2362   1.444       .  S
C2356      C2357   1.417       .  A
C2357      C2358   1.420   1_554  A
C2357      H2360   1.084       .  S
C2358      C2361   1.442       .  S
C2361      N2363   1.157       .  T
C2362      N2364   1.157       .  T
C2365      C2366   1.415       .  A
C2365      C2370   1.412       .  A
C2366      C2367   1.421       .  A
C2366      H2371   1.084       .  S
C2367      C2368   1.420       .  A
C2367      C2374   1.441       .  S
C2368      C2369   1.418       .  A
C2369      C2370   1.406       .  A
C2369      H2372   1.083       .  S
C2370      C2373   1.445       .  S
C2373      N2375   1.157       .  T
C2374      N2376   1.157       .  T
C2377      C2378   1.410       .  A
C2377      C2382   1.424       .  A
C2378      C2379   1.418       .  A
C2378      H2383   1.084       .  S
C2379      C2380   1.417       .  A
C2379      C2386   1.443       .  S
C2380      C2381   1.404       .  A
C2381      C2382   1.414       .  A
C2381      H2384   1.085       .  S
C2382      C2385   1.444       .  S
C2385      N2387   1.157       .  T
C2386      N2388   1.157       .  T
C2389      C2390   1.410       .  A
C2389      C2394   1.425       .  A
C2390      C2391   1.418       .  A
C2390      H2395   1.084   1_554  S
C2391      C2392   1.420       .  A
C2391      C2398   1.443       .  S
C2392      C2393   1.404       .  A
C2393      C2394   1.415       .  A
C2393      H2396   1.085       .  S
C2394      C2397   1.443       .  S
C2397      N2399   1.157       .  T
C2398      N2400   1.157       .  T
C2401      C2402   1.413       .  A
C2401      C2406   1.428       .  A
C2402      C2403   1.423       .  A
C2402      H2407   1.084       .  S
C2403      C2404   1.422       .  A
C2403      C2410   1.443       .  S
C2404      C2405   1.402       .  A
C2405      C2406   1.415       .  A
C2405      H2408   1.085       .  S
C2406      C2409   1.443       .  S
C2409      N2411   1.157       .  T
C2410      N2412   1.157   1_545  T
C2413      C2414   1.413       .  A
C2413      C2418   1.416   1_545  A
C2414      C2415   1.425   1_556  A
C2414      H2419   1.084       .  S
C2415      C2416   1.417   1_545  A
C2415      C2422   1.442       .  S
C2416      C2417   1.407       .  A
C2417      C2418   1.410   1_554  A
C2417      H2420   1.085       .  S
C2418      C2421   1.444       .  S
C2421      N2423   1.157       .  T
C2422      N2424   1.157       .  T
C2425      C2426   1.418       .  A
C2425      C2430   1.411       .  A
C2426      C2427   1.422       .  A
C2426      H2431   1.084       .  S
C2427      C2428   1.419       .  A
C2427      C2434   1.441       .  S
C2428      C2429   1.423       .  A
C2429      C2430   1.411       .  A
C2429      H2432   1.084       .  S
C2430      C2433   1.444       .  S
C2433      N2435   1.157       .  T
C2434      N2436   1.157       .  T
C2437      C2438   1.409       .  A
C2437      C2442   1.416       .  A
C2438      C2439   1.417   1_455  A
C2438      H2443   1.084       .  S
C2439      C2440   1.418       .  A
C2439      C2446   1.442       .  S
C2440      C2441   1.407       .  A
C2441      C2442   1.402   1_655  A
C2441      H2444   1.085   1_545  S
C2442      C2445   1.446   1_545  S
C2445      N2447   1.157       .  T
C2446      N2448   1.157       .  T
C2449      C2450   1.405       .  A
C2449      C2454   1.415   1_545  A
C2450      C2451   1.407       .  A
C2450      H2455   1.085       .  S
C2451      C2452   1.413   1_554  A
C2451      C2458   1.444       .  S
C2452      C2453   1.407   1_546  A
C2453      C2454   1.414       .  A
C2453      H2456   1.084   1_554  S
C2454      C2457   1.443       .  S
C2457      N2459   1.157       .  T
C2458      N2460   1.157   1_554  T
C2461      C2462   1.405       .  A
C2461      C2466   1.411       .  A
C2462      C2463   1.407   1_455  A
C2462      H2467   1.085       .  S
C2463      C2464   1.415       .  A
C2463      C2470   1.443       .  S
C2464      C2465   1.406       .  A
C2465      C2466   1.398   1_655  A
C2465      H2468   1.085       .  S
C2466      C2469   1.445       .  S
C2469      N2471   1.157       .  T
C2470      N2472   1.157   1_565  T
C2473      C2474   1.402       .  A
C2473      C2478   1.421       .  A
C2474      C2475   1.413       .  A
C2474      H2479   1.085       .  S
C2475      C2476   1.425       .  A
C2475      C2482   1.444       .  S
C2476      C2477   1.409       .  A
C2477      C2478   1.416       .  A
C2477      H2480   1.084       .  S
C2478      C2481   1.444       .  S
C2481      N2483   1.157   1_545  T
C2482      N2484   1.157       .  T
C2485      C2486   1.412   1_545  A
C2485      C2490   1.413       .  A
C2486      C2487   1.421       .  A
C2486      H2491   1.084       .  S
C2487      C2488   1.416       .  A
C2487      C2494   1.442       .  S
C2488      C2489   1.409   1_565  A
C2489      C2490   1.412       .  A
C2489      H2492   1.085       .  S
C2490      C2493   1.444       .  S
C2493      N2495   1.157       .  T
C2494      N2496   1.157       .  T
C2497      C2498   1.404       .  A
C2497      C2502   1.420       .  A
C2498      C2499   1.416       .  A
C2498      H2503   1.085       .  S
C2499      C2500   1.428       .  A
C2499      C2506   1.444       .  S
C2500      C2501   1.413       .  A
C2501      C2502   1.424       .  A
C2501      H2504   1.084       .  S
C2502      C2505   1.442       .  S
C2505      N2507   1.157   1_565  T
C2506      N2508   1.157       .  T
C2509      C2510   1.407       .  A
C2509      C2514   1.416   1_545  A
C2510      C2511   1.408       .  A
C2510      H2515   1.085       .  S
C2511      C2512   1.417       .  A
C2511      C2518   1.444       .  S
C2512      C2513   1.403   1_545  A
C2513      C2514   1.399       .  A
C2513      H2516   1.085       .  S
C2514      C2517   1.444       .  S
C2517      N2519   1.157       .  T
C2518      N2520   1.158       .  T
C2521      C2522   1.411   1_565  A
C2521      C2526   1.415       .  A
C2522      C2523   1.421       .  A
C2522      H2527   1.084       .  S
C2523      C2524   1.415   1_545  A
C2523      C2530   1.443       .  S
C2524      C2525   1.406       .  A
C2525      C2526   1.409       .  A
C2525      H2528   1.085       .  S
C2526      C2529   1.444       .  S
C2529      N2531   1.157       .  T
C2530      N2532   1.157       .  T
C2533      C2534   1.409       .  A
C2533      C2538   1.419       .  A
C2534      C2535   1.398       .  A
C2534      H2539   1.085       .  S
C2535      C2536   1.420       .  A
C2535      C2542   1.447       .  S
C2536      C2537   1.411       .  A
C2537      C2538   1.418       .  A
C2537      H2540   1.084       .  S
C2538      C2541   1.441       .  S
C2541      N2543   1.157       .  T
C2542      N2544   1.158       .  T
C2545      C2546   1.408       .  A
C2545      C2550   1.428       .  A
C2546      C2547   1.416       .  A
C2546      H2551   1.084       .  S
C2547      C2548   1.420       .  A
C2547      C2554   1.443       .  S
C2548      C2549   1.404       .  A
C2549      C2550   1.415       .  A
C2549      H2552   1.085       .  S
C2550      C2553   1.444       .  S
C2553      N2555   1.157       .  T
C2554      N2556   1.157       .  T
C2557      C2558   1.409       .  A
C2557      C2562   1.417       .  A
C2558      C2559   1.413       .  A
C2558      H2563   1.085       .  S
C2559      C2560   1.414       .  A
C2559      C2566   1.443       .  S
C2560      C2561   1.414       .  A
C2561      C2562   1.424       .  A
C2561      H2564   1.084       .  S
C2562      C2565   1.442       .  S
C2565      N2567   1.157       .  T
C2566      N2568   1.157       .  T
C2569      C2570   1.404       .  A
C2569      C2574   1.422       .  A
C2570      C2571   1.417       .  A
C2570      H2575   1.084       .  S
C2571      C2572   1.427   1_556  A
C2571      C2578   1.443       .  S
C2572      C2573   1.411       .  A
C2573      C2574   1.422   1_554  A
C2573      H2576   1.084       .  S
C2574      C2577   1.443       .  S
C2577      N2579   1.157   1_556  T
C2578      N2580   1.157       .  T
C2581      C2582   1.414       .  A
C2581      C2586   1.414       .  A
C2582      C2583   1.420       .  A
C2582      H2587   1.084       .  S
C2583      C2584   1.418       .  A
C2583      C2590   1.441       .  S
C2584      C2585   1.418       .  A
C2585      C2586   1.407       .  A
C2585      H2588   1.083       .  S
C2586      C2589   1.445       .  S
C2589      N2591   1.158       .  T
C2590      N2592   1.157       .  T
C2593      C2594   1.407       .  A
C2593      C2598   1.416       .  A
C2594      C2595   1.399       .  A
C2594      H2599   1.085       .  S
C2595      C2596   1.415       .  A
C2595      C2602   1.445       .  S
C2596      C2597   1.411       .  A
C2597      C2598   1.414       .  A
C2597      H2600   1.084       .  S
C2598      C2601   1.443       .  S
C2601      N2603   1.157       .  T
C2602      N2604   1.157       .  T
C2605      C2606   1.406       .  A
C2605      C2610   1.415       .  A
C2606      C2607   1.411       .  A
C2606      H2611   1.085       .  S
C2607      C2608   1.413       .  A
C2607      C2614   1.443       .  S
C2608      C2609   1.405       .  A
C2609      C2610   1.410       .  A
C2609      H2612   1.085       .  S
C2610      C2613   1.443       .  S
C2613      N2615   1.157       .  T
C2614      N2616   1.157       .  T
C2617      C2618   1.408       .  A
C2617      C2622   1.427       .  A
C2618      C2619   1.409       .  A
C2618      H2623   1.084       .  S
C2619      C2620   1.425       .  A
C2619      C2626   1.444       .  S
C2620      C2621   1.410   1_556  A
C2621      C2622   1.420   1_554  A
C2621      H2624   1.084       .  S
C2622      C2625   1.443       .  S
C2625      N2627   1.158   1_556  T
C2626      N2628   1.157       .  T
C2629      C2630   1.409       .  A
C2629      C2634   1.417       .  A
C2630      C2631   1.414       .  A
C2630      H2635   1.084       .  S
C2631      C2632   1.416       .  A
C2631      C2638   1.443       .  S
C2632      C2633   1.404       .  A
C2633      C2634   1.401       .  A
C2633      H2636   1.085       .  S
C2634      C2637   1.445       .  S
C2637      N2639   1.157       .  T
C2638      N2640   1.157       .  T
C2641      C2642   1.418       .  A
C2641      C2646   1.414       .  A
C2642      C2643   1.419       .  A
C2642      H2647   1.084       .  S
C2643      C2644   1.416       .  A
C2643      C2650   1.442       .  S
C2644      C2645   1.416       .  A
C2645      C2646   1.407       .  A
C2645      H2648   1.084       .  S
C2646      C2649   1.444       .  S
C2649      N2651   1.157       .  T
C2650      N2652   1.157       .  T
C2653      C2654   1.409       .  A
C2653      C2658   1.412       .  A
C2654      C2655   1.416       .  A
C2654      H2659   1.084       .  S
C2655      C2656   1.415       .  A
C2655      C2662   1.443       .  S
C2656      C2657   1.407       .  A
C2657      C2658   1.409       .  A
C2657      H2660   1.085       .  S
C2658      C2661   1.443       .  S
C2661      N2663   1.157       .  T
C2662      N2664   1.157       .  T
C2665      C2666   1.417       .  A
C2665      C2670   1.421       .  A
C2666      C2667   1.408       .  A
C2666      H2671   1.084       .  S
C2667      C2668   1.413       .  A
C2667      C2674   1.444       .  S
C2668      C2669   1.413       .  A
C2669      C2670   1.419       .  A
C2669      H2672   1.084       .  S
C2670      C2673   1.441       .  S
C2673      N2675   1.157       .  T
C2674      N2676   1.157       .  T
C2677      C2678   1.409       .  A
C2677      C2682   1.416       .  A
C2678      C2679   1.409       .  A
C2678      H2683   1.084       .  S
C2679      C2680   1.415       .  A
C2679      C2686   1.443       .  S
C2680      C2681   1.405       .  A
C2681      C2682   1.397       .  A
C2681      H2684   1.085       .  S
C2682      C2685   1.446       .  S
C2685      N2687   1.157       .  T
C2686      N2688   1.157       .  T
C2689      C2690   1.407       .  A
C2689      C2694   1.417       .  A
C2690      C2691   1.417       .  A
C2690      H2695   1.084       .  S
C2691      C2692   1.418       .  A
C2691      C2698   1.443       .  S
C2692      C2693   1.406       .  A
C2693      C2694   1.414       .  A
C2693      H2696   1.085       .  S
C2694      C2697   1.443       .  S
C2697      N2699   1.157       .  T
C2698      N2700   1.157       .  T
C2701      C2702   1.410       .  A
C2701      C2706   1.418       .  A
C2702      C2703   1.415       .  A
C2702      H2707   1.084       .  S
C2703      C2704   1.418       .  A
C2703      C2710   1.443       .  S
C2704      C2705   1.404       .  A
C2705      C2706   1.401       .  A
C2705      H2708   1.085       .  S
C2706      C2709   1.444       .  S
C2709      N2711   1.157       .  T
C2710      N2712   1.157       .  T
C2713      C2714   1.406       .  A
C2713      C2718   1.427       .  A
C2714      C2715   1.405       .  A
C2714      H2719   1.084       .  S
C2715      C2716   1.426       .  A
C2715      C2722   1.445       .  S
C2716      C2717   1.410       .  A
C2717      C2718   1.421       .  A
C2717      H2720   1.084       .  S
C2718      C2721   1.442       .  S
C2721      N2723   1.157       .  T
C2722      N2724   1.157       .  T
C2725      C2726   1.407       .  A
C2725      C2730   1.414       .  A
C2726      C2727   1.414   1_554  A
C2726      H2731   1.084       .  S
C2727      C2728   1.413       .  A
C2727      C2734   1.442       .  S
C2728      C2729   1.406   1_556  A
C2729      C2730   1.407       .  A
C2729      H2732   1.085   1_554  S
C2730      C2733   1.444       .  S
C2733      N2735   1.157       .  T
C2734      N2736   1.157       .  T
C2737      C2738   1.412       .  A
C2737      C2742   1.413       .  A
C2738      C2739   1.416       .  A
C2738      H2743   1.084       .  S
C2739      C2740   1.418       .  A
C2739      C2746   1.441       .  S
C2740      C2741   1.416       .  A
C2741      C2742   1.408       .  A
C2741      H2744   1.083       .  S
C2742      C2745   1.444       .  S
C2745      N2747   1.157       .  T
C2746      N2748   1.157       .  T
C2749      C2750   1.402       .  A
C2749      C2754   1.417       .  A
C2750      C2751   1.396   1_455  A
C2750      H2755   1.085       .  S
C2751      C2752   1.420       .  A
C2751      C2758   1.446       .  S
C2752      C2753   1.409       .  A
C2753      C2754   1.415   1_655  A
C2753      H2756   1.084       .  S
C2754      C2757   1.442       .  S
C2757      N2759   1.157       .  T
C2758      N2760   1.157       .  T
C2761      C2762   1.409       .  A
C2761      C2766   1.415   1_556  A
C2762      C2763   1.416   1_556  A
C2762      H2767   1.084       .  S
C2763      C2764   1.415       .  A
C2763      C2770   1.443       .  S
C2764      C2765   1.410       .  A
C2765      C2766   1.416       .  A
C2765      H2768   1.084       .  S
C2766      C2769   1.443   1_554  S
C2769      N2771   1.157       .  T
C2770      N2772   1.157       .  T
C2773      C2774   1.407       .  A
C2773      C2778   1.415       .  A
C2774      C2775   1.410   1_455  A
C2774      H2779   1.084       .  S
C2775      C2776   1.416       .  A
C2775      C2782   1.443       .  S
C2776      C2777   1.405       .  A
C2777      C2778   1.400   1_655  A
C2777      H2780   1.085       .  S
C2778      C2781   1.445       .  S
C2781      N2783   1.157       .  T
C2782      N2784   1.157       .  T
C2785      C2786   1.408       .  A
C2785      C2790   1.416       .  A
C2786      C2787   1.411       .  A
C2786      H2791   1.085       .  S
C2787      C2788   1.417       .  A
C2787      C2794   1.444       .  S
C2788      C2789   1.412       .  A
C2789      C2790   1.422       .  A
C2789      H2792   1.084       .  S
C2790      C2793   1.442       .  S
C2793      N2795   1.157       .  T
C2794      N2796   1.157       .  T
C2797      C2798   1.405       .  A
C2797      C2802   1.413       .  A
C2798      C2799   1.408       .  A
C2798      H2803   1.085       .  S
C2799      C2800   1.413       .  A
C2799      C2806   1.442       .  S
C2800      C2801   1.404       .  A
C2801      C2802   1.401       .  A
C2801      H2804   1.085       .  S
C2802      C2805   1.445       .  S
C2805      N2807   1.157       .  T
C2806      N2808   1.157       .  T
C2809      C2810   1.405       .  A
C2809      C2814   1.415       .  A
C2810      C2811   1.408       .  A
C2810      H2815   1.085       .  S
C2811      C2812   1.413       .  A
C2811      C2818   1.443       .  S
C2812      C2813   1.407       .  A
C2813      C2814   1.414       .  A
C2813      H2816   1.084       .  S
C2814      C2817   1.443       .  S
C2817      N2819   1.157       .  T
C2818      N2820   1.157       .  T
C2821      C2822   1.404       .  A
C2821      C2826   1.417       .  A
C2822      C2823   1.400       .  A
C2822      H2827   1.085       .  S
C2823      C2824   1.421       .  A
C2823      C2830   1.446       .  S
C2824      C2825   1.410       .  A
C2825      C2826   1.415       .  A
C2825      H2828   1.084       .  S
C2826      C2829   1.443       .  S
C2829      N2831   1.157       .  T
C2830      N2832   1.157       .  T
C2833      C2834   1.409       .  A
C2833      C2838   1.438       .  A
C2834      C2835   1.424       .  A
C2834      H2839   1.084   1_554  S
C2835      C2836   1.430       .  A
C2835      C2842   1.441       .  S
C2836      C2837   1.401       .  A
C2837      C2838   1.412       .  A
C2837      H2840   1.085       .  S
C2838      C2841   1.445       .  S
C2841      N2843   1.157       .  T
C2842      N2844   1.157       .  T
C2845      C2846   1.411       .  A
C2845      C2850   1.424       .  A
C2846      C2847   1.419       .  A
C2846      H2851   1.084       .  S
C2847      C2848   1.419       .  A
C2847      C2854   1.443       .  S
C2848      C2849   1.406       .  A
C2849      C2850   1.417       .  A
C2849      H2852   1.084       .  S
C2850      C2853   1.443       .  S
C2853      N2855   1.157       .  T
C2854      N2856   1.157       .  T
C2857      C2858   1.415       .  A
C2857      C2862   1.411       .  A
C2858      C2859   1.423       .  A
C2858      H2863   1.084       .  S
C2859      C2860   1.421       .  A
C2859      C2866   1.440       .  S
C2860      C2861   1.421       .  A
C2861      C2862   1.410       .  A
C2861      H2864   1.084       .  S
C2862      C2865   1.445       .  S
C2865      N2867   1.157       .  T
C2866      N2868   1.157       .  T
C2869      C2870   1.416       .  A
C2869      C2874   1.410       .  A
C2870      C2871   1.421       .  A
C2870      H2875   1.084       .  S
C2871      C2872   1.418       .  A
C2871      C2878   1.440       .  S
C2872      C2873   1.424       .  A
C2873      C2874   1.412       .  A
C2873      H2876   1.084       .  S
C2874      C2877   1.444       .  S
C2877      N2879   1.158       .  T
C2878      N2880   1.157       .  T
C2881      C2882   1.419       .  A
C2881      C2886   1.416       .  A
C2882      C2883   1.411       .  A
C2882      H2887   1.084       .  S
C2883      C2884   1.416       .  A
C2883      C2890   1.444       .  S
C2884      C2885   1.421       .  A
C2885      C2886   1.422       .  A
C2885      H2888   1.084       .  S
C2886      C2889   1.442       .  S
C2889      N2891   1.157       .  T
C2890      N2892   1.157       .  T
C2893      C2894   1.410       .  A
C2893      C2898   1.425       .  A
C2894      C2895   1.421       .  A
C2894      H2899   1.084       .  S
C2895      C2896   1.423       .  A
C2895      C2902   1.443       .  S
C2896      C2897   1.404       .  A
C2897      C2898   1.415       .  A
C2897      H2900   1.085       .  S
C2898      C2901   1.443       .  S
C2901      N2903   1.157       .  T
C2902      N2904   1.157       .  T
C2905      C2906   1.417       .  A
C2905      C2910   1.422       .  A
C2906      C2907   1.409       .  A
C2906      H2911   1.084       .  S
C2907      C2908   1.414       .  A
C2907      C2914   1.445       .  S
C2908      C2909   1.413       .  A
C2909      C2910   1.421       .  A
C2909      H2912   1.084       .  S
C2910      C2913   1.441       .  S
C2913      N2915   1.157       .  T
C2914      N2916   1.157       .  T
C2917      C2918   1.409       .  A
C2917      C2922   1.414       .  A
C2918      C2919   1.412       .  A
C2918      H2923   1.084   1_565  S
C2919      C2920   1.412       .  A
C2919      C2926   1.443   1_565  S
C2920      C2921   1.406       .  A
C2921      C2922   1.408       .  A
C2921      H2924   1.085       .  S
C2922      C2925   1.444       .  S
C2925      N2927   1.157       .  T
C2926      N2928   1.157       .  T
C2929      C2930   1.406       .  A
C2929      C2934   1.413       .  A
C2930      C2931   1.411       .  A
C2930      H2935   1.084       .  S
C2931      C2932   1.416       .  A
C2931      C2938   1.444       .  S
C2932      C2933   1.409       .  A
C2933      C2934   1.413       .  A
C2933      H2936   1.084   1_545  S
C2934      C2937   1.443   1_545  S
C2937      N2939   1.157       .  T
C2938      N2940   1.157       .  T
C2941      C2942   1.415       .  A
C2941      C2946   1.422       .  A
C2942      C2943   1.416       .  A
C2942      H2947   1.084       .  S
C2943      C2944   1.418       .  A
C2943      C2950   1.442       .  S
C2944      C2945   1.411       .  A
C2945      C2946   1.409       .  A
C2945      H2948   1.085       .  S
C2946      C2949   1.444       .  S
C2949      N2951   1.158       .  T
C2950      N2952   1.157       .  T
C2953      C2954   1.409   1_556  A
C2953      C2958   1.422   1_556  A
C2954      C2955   1.414       .  A
C2954      H2959   1.084   1_554  S
C2955      C2956   1.414       .  A
C2955      C2962   1.442       .  S
C2956      C2957   1.403       .  A
C2957      C2958   1.409       .  A
C2957      H2960   1.085       .  S
C2958      C2961   1.445       .  S
C2961      N2963   1.157       .  T
C2962      N2964   1.157       .  T
C2965      C2966   1.404       .  A
C2965      C2970   1.421       .  A
C2966      C2967   1.413       .  A
C2966      H2971   1.085       .  S
C2967      C2968   1.424       .  A
C2967      C2974   1.442       .  S
C2968      C2969   1.412       .  A
C2969      C2970   1.422       .  A
C2969      H2972   1.084       .  S
C2970      C2973   1.442   1_565  S
C2973      N2975   1.157       .  T
C2974      N2976   1.157       .  T
C2977      C2978   1.407       .  A
C2977      C2982   1.414       .  A
C2978      C2979   1.411       .  A
C2978      H2983   1.085       .  S
C2979      C2980   1.416       .  A
C2979      C2986   1.443       .  S
C2980      C2981   1.409       .  A
C2981      C2982   1.414       .  A
C2981      H2984   1.084       .  S
C2982      C2985   1.443       .  S
C2985      N2987   1.157       .  T
C2986      N2988   1.157       .  T
C2989      C2990   1.405       .  A
C2989      C2994   1.415       .  A
C2990      C2991   1.407       .  A
C2990      H2995   1.085       .  S
C2991      C2992   1.414       .  A
C2991      C2998   1.444       .  S
C2992      C2993   1.408       .  A
C2993      C2994   1.416       .  A
C2993      H2996   1.084       .  S
C2994      C2997   1.442       .  S
C2997      N2999   1.157       .  T
C2998      N3000   1.157       .  T
C3001      C3002   1.410   1_554  A
C3001      C3006   1.415       .  A
C3002      C3003   1.406       .  A
C3002      H3007   1.085       .  S
C3003      C3004   1.422       .  A
C3003      C3010   1.444       .  S
C3004      C3005   1.417       .  A
C3005      C3006   1.419   1_556  A
C3005      H3008   1.084       .  S
C3006      C3009   1.442       .  S
C3009      N3011   1.157       .  T
C3010      N3012   1.158       .  T
C3013      C3014   1.408       .  A
C3013      C3018   1.425       .  A
C3014      C3015   1.417       .  A
C3014      H3019   1.084       .  S
C3015      C3016   1.421       .  A
C3015      C3022   1.443       .  S
C3016      C3017   1.405       .  A
C3017      C3018   1.416       .  A
C3017      H3020   1.084       .  S
C3018      C3021   1.444       .  S
C3021      N3023   1.157       .  T
C3022      N3024   1.157       .  T
C3025      C3026   1.406       .  A
C3025      C3030   1.418       .  A
C3026      C3027   1.396       .  A
C3026      H3031   1.085       .  S
C3027      C3028   1.417       .  A
C3027      C3034   1.446       .  S
C3028      C3029   1.407       .  A
C3029      C3030   1.411       .  A
C3029      H3032   1.084       .  S
C3030      C3033   1.442       .  S
C3033      N3035   1.157       .  T
C3034      N3036   1.158       .  T
C3037      C3038   1.410       .  A
C3037      C3042   1.413       .  A
C3038      C3039   1.421       .  A
C3038      H3043   1.084       .  S
C3039      C3040   1.417       .  A
C3039      C3046   1.442       .  S
C3040      C3041   1.411       .  A
C3041      C3042   1.413       .  A
C3041      H3044   1.085       .  S
C3042      C3045   1.444       .  S
C3045      N3047   1.157       .  T
C3046      N3048   1.157       .  T
C3049      C3050   1.415       .  A
C3049      C3054   1.412       .  A
C3050      C3051   1.423   1_556  A
C3050      H3055   1.084       .  S
C3051      C3052   1.420       .  A
C3051      C3058   1.440       .  S
C3052      C3053   1.420   1_554  A
C3053      C3054   1.410       .  A
C3053      H3056   1.084       .  S
C3054      C3057   1.445       .  S
C3057      N3059   1.157       .  T
C3058      N3060   1.157       .  T
C3061      C3062   1.412       .  A
C3061      C3066   1.418       .  A
C3062      C3063   1.417       .  A
C3062      H3067   1.084       .  S
C3063      C3064   1.416       .  A
C3063      C3070   1.443       .  S
C3064      C3065   1.404       .  A
C3065      C3066   1.400       .  A
C3065      H3068   1.085       .  S
C3066      C3069   1.445       .  S
C3069      N3071   1.157       .  T
C3070      N3072   1.157       .  T
